data_image0
_chemical_formula_structural       Cd8H136C136N48O24
_chemical_formula_sum              "Cd8 H136 C136 N48 O24"
_cell_length_a       23.984
_cell_length_b       13.122
_cell_length_c       11.917
_cell_angle_alpha    90
_cell_angle_beta     90
_cell_angle_gamma    90

_space_group_name_H-M_alt    "P 1"
_space_group_IT_number       1

loop_
  _space_group_symop_operation_xyz
  'x, y, z'

loop_
  _atom_site_type_symbol
  _atom_site_label
  _atom_site_symmetry_multiplicity
  _atom_site_fract_x
  _atom_site_fract_y
  _atom_site_fract_z
  _atom_site_occupancy
  Cd  Cd1       1.0  0.25000  0.00000  0.05118  1.0000
  Cd  Cd2       1.0  0.25000  0.50000  0.44882  1.0000
  Cd  Cd3       1.0  0.75000  0.00000  0.94882  1.0000
  Cd  Cd4       1.0  0.75000  0.50000  0.55118  1.0000
  Cd  Cd5       1.0  0.45754  0.25000  0.25000  1.0000
  Cd  Cd6       1.0  0.04246  0.75000  0.25000  1.0000
  Cd  Cd7       1.0  0.54246  0.75000  0.75000  1.0000
  Cd  Cd8       1.0  0.95754  0.25000  0.75000  1.0000
  H   H1        1.0  0.38620  0.43990  0.11270  1.0000
  H   H2        1.0  0.11380  0.56010  0.11270  1.0000
  H   H3        1.0  0.11380  0.93990  0.38730  1.0000
  H   H4        1.0  0.38620  0.06010  0.38730  1.0000
  H   H5        1.0  0.61380  0.56010  0.88730  1.0000
  H   H6        1.0  0.88620  0.43990  0.88730  1.0000
  H   H7        1.0  0.88620  0.06010  0.61270  1.0000
  H   H8        1.0  0.61380  0.93990  0.61270  1.0000
  H   H9        1.0  0.42810  0.57990  0.02860  1.0000
  H   H10       1.0  0.07190  0.42010  0.02860  1.0000
  H   H11       1.0  0.07190  0.07990  0.47140  1.0000
  H   H12       1.0  0.42810  0.92010  0.47140  1.0000
  H   H13       1.0  0.57190  0.42010  0.97140  1.0000
  H   H14       1.0  0.92810  0.57990  0.97140  1.0000
  H   H15       1.0  0.92810  0.92010  0.52860  1.0000
  H   H16       1.0  0.57190  0.07990  0.52860  1.0000
  H   H17       1.0  0.44930  0.41990  0.74720  1.0000
  H   H18       1.0  0.05070  0.58010  0.74720  1.0000
  H   H19       1.0  0.05070  0.91990  0.75280  1.0000
  H   H20       1.0  0.44930  0.08010  0.75280  1.0000
  H   H21       1.0  0.55070  0.58010  0.25280  1.0000
  H   H22       1.0  0.94930  0.41990  0.25280  1.0000
  H   H23       1.0  0.94930  0.08010  0.24720  1.0000
  H   H24       1.0  0.55070  0.91990  0.24720  1.0000
  H   H25       1.0  0.40810  0.28000  0.83100  1.0000
  H   H26       1.0  0.09190  0.72000  0.83100  1.0000
  H   H27       1.0  0.09190  0.78000  0.66900  1.0000
  H   H28       1.0  0.40810  0.22000  0.66900  1.0000
  H   H29       1.0  0.59190  0.72000  0.16900  1.0000
  H   H30       1.0  0.90810  0.28000  0.16900  1.0000
  H   H31       1.0  0.90810  0.22000  0.33100  1.0000
  H   H32       1.0  0.59190  0.78000  0.33100  1.0000
  H   H33       1.0  0.24190  0.14740  0.27090  1.0000
  H   H34       1.0  0.25810  0.85260  0.27090  1.0000
  H   H35       1.0  0.25810  0.64740  0.22910  1.0000
  H   H36       1.0  0.24190  0.35260  0.22910  1.0000
  H   H37       1.0  0.75810  0.85260  0.72910  1.0000
  H   H38       1.0  0.74190  0.14740  0.72910  1.0000
  H   H39       1.0  0.74190  0.35260  0.77090  1.0000
  H   H40       1.0  0.75810  0.64740  0.77090  1.0000
  H   H41       1.0  0.23860  0.15180  0.46310  1.0000
  H   H42       1.0  0.26140  0.84820  0.46310  1.0000
  H   H43       1.0  0.26140  0.65180  0.03690  1.0000
  H   H44       1.0  0.23860  0.34820  0.03690  1.0000
  H   H45       1.0  0.76140  0.84820  0.53690  1.0000
  H   H46       1.0  0.73860  0.15180  0.53690  1.0000
  H   H47       1.0  0.73860  0.34820  0.96310  1.0000
  H   H48       1.0  0.76140  0.65180  0.96310  1.0000
  H   H49       1.0  0.27660  0.14440  0.63700  1.0000
  H   H50       1.0  0.22340  0.85560  0.63700  1.0000
  H   H51       1.0  0.22340  0.64440  0.86300  1.0000
  H   H52       1.0  0.27660  0.35560  0.86300  1.0000
  H   H53       1.0  0.72340  0.85560  0.36300  1.0000
  H   H54       1.0  0.77660  0.14440  0.36300  1.0000
  H   H55       1.0  0.77660  0.35560  0.13700  1.0000
  H   H56       1.0  0.72340  0.64440  0.13700  1.0000
  H   H57       1.0  0.27590  0.14040  0.82830  1.0000
  H   H58       1.0  0.22410  0.85960  0.82830  1.0000
  H   H59       1.0  0.22410  0.64040  0.67170  1.0000
  H   H60       1.0  0.27590  0.35960  0.67170  1.0000
  H   H61       1.0  0.72410  0.85960  0.17170  1.0000
  H   H62       1.0  0.77590  0.14040  0.17170  1.0000
  H   H63       1.0  0.77590  0.35960  0.32830  1.0000
  H   H64       1.0  0.72410  0.64040  0.32830  1.0000
  H   H65       1.0  0.06650  0.10650  0.24340  1.0000
  H   H66       1.0  0.43350  0.89350  0.24340  1.0000
  H   H67       1.0  0.43350  0.60650  0.25660  1.0000
  H   H68       1.0  0.06650  0.39350  0.25660  1.0000
  H   H69       1.0  0.93350  0.89350  0.75660  1.0000
  H   H70       1.0  0.56650  0.10650  0.75660  1.0000
  H   H71       1.0  0.56650  0.39350  0.74340  1.0000
  H   H72       1.0  0.93350  0.60650  0.74340  1.0000
  H   H73       1.0  0.12350  0.16490  0.23880  1.0000
  H   H74       1.0  0.37650  0.83510  0.23880  1.0000
  H   H75       1.0  0.37650  0.66490  0.26120  1.0000
  H   H76       1.0  0.12350  0.33510  0.26120  1.0000
  H   H77       1.0  0.87650  0.83510  0.76120  1.0000
  H   H78       1.0  0.62350  0.16490  0.76120  1.0000
  H   H79       1.0  0.62350  0.33510  0.73880  1.0000
  H   H80       1.0  0.87650  0.66490  0.73880  1.0000
  H   H81       1.0  0.12170  0.04720  0.21700  1.0000
  H   H82       1.0  0.37830  0.95280  0.21700  1.0000
  H   H83       1.0  0.37830  0.54720  0.28300  1.0000
  H   H84       1.0  0.12170  0.45280  0.28300  1.0000
  H   H85       1.0  0.87830  0.95280  0.78300  1.0000
  H   H86       1.0  0.62170  0.04720  0.78300  1.0000
  H   H87       1.0  0.62170  0.45280  0.71700  1.0000
  H   H88       1.0  0.87830  0.54720  0.71700  1.0000
  H   H89       1.0  0.01060  0.12220  0.11000  1.0000
  H   H90       1.0  0.48940  0.87780  0.11000  1.0000
  H   H91       1.0  0.48940  0.62220  0.39000  1.0000
  H   H92       1.0  0.01060  0.37780  0.39000  1.0000
  H   H93       1.0  0.98940  0.87780  0.89000  1.0000
  H   H94       1.0  0.51060  0.12220  0.89000  1.0000
  H   H95       1.0  0.51060  0.37780  0.61000  1.0000
  H   H96       1.0  0.98940  0.62220  0.61000  1.0000
  H   H97       1.0  0.02950  0.07150  0.99720  1.0000
  H   H98       1.0  0.47050  0.92850  0.99720  1.0000
  H   H99       1.0  0.47050  0.57150  0.50280  1.0000
  H   H100      1.0  0.02950  0.42850  0.50280  1.0000
  H   H101      1.0  0.97050  0.92850  0.00280  1.0000
  H   H102      1.0  0.52950  0.07150  0.00280  1.0000
  H   H103      1.0  0.52950  0.42850  0.49720  1.0000
  H   H104      1.0  0.97050  0.57150  0.49720  1.0000
  H   H105      1.0  0.02720  0.19050  0.00750  1.0000
  H   H106      1.0  0.47280  0.80950  0.00750  1.0000
  H   H107      1.0  0.47280  0.69050  0.49250  1.0000
  H   H108      1.0  0.02720  0.30950  0.49250  1.0000
  H   H109      1.0  0.97280  0.80950  0.99250  1.0000
  H   H110      1.0  0.52720  0.19050  0.99250  1.0000
  H   H111      1.0  0.52720  0.30950  0.50750  1.0000
  H   H112      1.0  0.97280  0.69050  0.50750  1.0000
  H   H113      1.0  0.08810  0.15520  0.88280  1.0000
  H   H114      1.0  0.41190  0.84480  0.88280  1.0000
  H   H115      1.0  0.41190  0.65520  0.61720  1.0000
  H   H116      1.0  0.08810  0.34480  0.61720  1.0000
  H   H117      1.0  0.91190  0.84480  0.11720  1.0000
  H   H118      1.0  0.58810  0.15520  0.11720  1.0000
  H   H119      1.0  0.58810  0.34480  0.38280  1.0000
  H   H120      1.0  0.91190  0.65520  0.38280  1.0000
  H   H121      1.0  0.14510  0.10170  0.85670  1.0000
  H   H122      1.0  0.35490  0.89830  0.85670  1.0000
  H   H123      1.0  0.35490  0.60170  0.64330  1.0000
  H   H124      1.0  0.14510  0.39830  0.64330  1.0000
  H   H125      1.0  0.85490  0.89830  0.14330  1.0000
  H   H126      1.0  0.64510  0.10170  0.14330  1.0000
  H   H127      1.0  0.64510  0.39830  0.35670  1.0000
  H   H128      1.0  0.85490  0.60170  0.35670  1.0000
  H   H129      1.0  0.14310  0.21970  0.87750  1.0000
  H   H130      1.0  0.35690  0.78030  0.87750  1.0000
  H   H131      1.0  0.35690  0.71970  0.62250  1.0000
  H   H132      1.0  0.14310  0.28030  0.62250  1.0000
  H   H133      1.0  0.85690  0.78030  0.12250  1.0000
  H   H134      1.0  0.64310  0.21970  0.12250  1.0000
  H   H135      1.0  0.64310  0.28030  0.37750  1.0000
  H   H136      1.0  0.85690  0.71970  0.37750  1.0000
  C   C1        1.0  0.36892  0.25370  0.03230  1.0000
  C   C2        1.0  0.13108  0.74630  0.03230  1.0000
  C   C3        1.0  0.13108  0.75370  0.46770  1.0000
  C   C4        1.0  0.36892  0.24630  0.46770  1.0000
  C   C5        1.0  0.63108  0.74630  0.96770  1.0000
  C   C6        1.0  0.86892  0.25370  0.96770  1.0000
  C   C7        1.0  0.86892  0.24630  0.53230  1.0000
  C   C8        1.0  0.63108  0.75370  0.53230  1.0000
  C   C9        1.0  0.39293  0.34540  0.98010  1.0000
  C   C10       1.0  0.10707  0.65460  0.98010  1.0000
  C   C11       1.0  0.10707  0.84540  0.51990  1.0000
  C   C12       1.0  0.39293  0.15460  0.51990  1.0000
  C   C13       1.0  0.60707  0.65460  0.01990  1.0000
  C   C14       1.0  0.89293  0.34540  0.01990  1.0000
  C   C15       1.0  0.89293  0.15460  0.48010  1.0000
  C   C16       1.0  0.60707  0.84540  0.48010  1.0000
  C   C17       1.0  0.39911  0.43530  0.03930  1.0000
  C   C18       1.0  0.10089  0.56470  0.03930  1.0000
  C   C19       1.0  0.10089  0.93530  0.46070  1.0000
  C   C20       1.0  0.39911  0.06470  0.46070  1.0000
  C   C21       1.0  0.60089  0.56470  0.96070  1.0000
  C   C22       1.0  0.89911  0.43530  0.96070  1.0000
  C   C23       1.0  0.89911  0.06470  0.53930  1.0000
  C   C24       1.0  0.60089  0.93530  0.53930  1.0000
  C   C25       1.0  0.42472  0.51910  0.98890  1.0000
  C   C26       1.0  0.07528  0.48090  0.98890  1.0000
  C   C27       1.0  0.07528  0.01910  0.51110  1.0000
  C   C28       1.0  0.42472  0.98090  0.51110  1.0000
  C   C29       1.0  0.57528  0.48090  0.01110  1.0000
  C   C30       1.0  0.92472  0.51910  0.01110  1.0000
  C   C31       1.0  0.92472  0.98090  0.48890  1.0000
  C   C32       1.0  0.57528  0.01910  0.48890  1.0000
  C   C33       1.0  0.44506  0.51280  0.88100  1.0000
  C   C34       1.0  0.05494  0.48720  0.88100  1.0000
  C   C35       1.0  0.05494  0.01280  0.61900  1.0000
  C   C36       1.0  0.44506  0.98720  0.61900  1.0000
  C   C37       1.0  0.55494  0.48720  0.11900  1.0000
  C   C38       1.0  0.94506  0.51280  0.11900  1.0000
  C   C39       1.0  0.94506  0.98720  0.38100  1.0000
  C   C40       1.0  0.55494  0.01280  0.38100  1.0000
  C   C41       1.0  0.43740  0.42390  0.82140  1.0000
  C   C42       1.0  0.06260  0.57610  0.82140  1.0000
  C   C43       1.0  0.06260  0.92390  0.67860  1.0000
  C   C44       1.0  0.43740  0.07610  0.67860  1.0000
  C   C45       1.0  0.56260  0.57610  0.17860  1.0000
  C   C46       1.0  0.93740  0.42390  0.17860  1.0000
  C   C47       1.0  0.93740  0.07610  0.32140  1.0000
  C   C48       1.0  0.56260  0.92390  0.32140  1.0000
  C   C49       1.0  0.41210  0.34020  0.87140  1.0000
  C   C50       1.0  0.08790  0.65980  0.87140  1.0000
  C   C51       1.0  0.08790  0.84020  0.62860  1.0000
  C   C52       1.0  0.41210  0.15980  0.62860  1.0000
  C   C53       1.0  0.58790  0.65980  0.12860  1.0000
  C   C54       1.0  0.91210  0.34020  0.12860  1.0000
  C   C55       1.0  0.91210  0.15980  0.37140  1.0000
  C   C56       1.0  0.58790  0.84020  0.37140  1.0000
  C   C57       1.0  0.47821  0.59890  0.83060  1.0000
  C   C58       1.0  0.02179  0.40110  0.83060  1.0000
  C   C59       1.0  0.02179  0.09890  0.66940  1.0000
  C   C60       1.0  0.47821  0.90110  0.66940  1.0000
  C   C61       1.0  0.52179  0.40110  0.16940  1.0000
  C   C62       1.0  0.97821  0.59890  0.16940  1.0000
  C   C63       1.0  0.97821  0.90110  0.33060  1.0000
  C   C64       1.0  0.52179  0.09890  0.33060  1.0000
  C   C65       1.0  0.24483  0.08640  0.31030  1.0000
  C   C66       1.0  0.25517  0.91360  0.31030  1.0000
  C   C67       1.0  0.25517  0.58640  0.18970  1.0000
  C   C68       1.0  0.24483  0.41360  0.18970  1.0000
  C   C69       1.0  0.75517  0.91360  0.68970  1.0000
  C   C70       1.0  0.74483  0.08640  0.68970  1.0000
  C   C71       1.0  0.74483  0.41360  0.81030  1.0000
  C   C72       1.0  0.75517  0.58640  0.81030  1.0000
  C   C73       1.0  0.24362  0.09000  0.42630  1.0000
  C   C74       1.0  0.25638  0.91000  0.42630  1.0000
  C   C75       1.0  0.25638  0.59000  0.07370  1.0000
  C   C76       1.0  0.24362  0.41000  0.07370  1.0000
  C   C77       1.0  0.75638  0.91000  0.57370  1.0000
  C   C78       1.0  0.74362  0.09000  0.57370  1.0000
  C   C79       1.0  0.74362  0.41000  0.92630  1.0000
  C   C80       1.0  0.75638  0.59000  0.92630  1.0000
  C   C81       1.0  0.25000  0.00000  0.48740  1.0000
  C   C82       1.0  0.25000  0.50000  0.01260  1.0000
  C   C83       1.0  0.75000  0.00000  0.51260  1.0000
  C   C84       1.0  0.75000  0.50000  0.98740  1.0000
  C   C85       1.0  0.25000  0.00000  0.61220  1.0000
  C   C86       1.0  0.25000  0.50000  0.88780  1.0000
  C   C87       1.0  0.75000  0.00000  0.38780  1.0000
  C   C88       1.0  0.75000  0.50000  0.11220  1.0000
  C   C89       1.0  0.26570  0.08520  0.67380  1.0000
  C   C90       1.0  0.23430  0.91480  0.67380  1.0000
  C   C91       1.0  0.23430  0.58520  0.82620  1.0000
  C   C92       1.0  0.26570  0.41480  0.82620  1.0000
  C   C93       1.0  0.73430  0.91480  0.32620  1.0000
  C   C94       1.0  0.76570  0.08520  0.32620  1.0000
  C   C95       1.0  0.76570  0.41480  0.17380  1.0000
  C   C96       1.0  0.73430  0.58520  0.17380  1.0000
  C   C97       1.0  0.26520  0.08220  0.78940  1.0000
  C   C98       1.0  0.23480  0.91780  0.78940  1.0000
  C   C99       1.0  0.23480  0.58220  0.71060  1.0000
  C   C100      1.0  0.26520  0.41780  0.71060  1.0000
  C   C101      1.0  0.73480  0.91780  0.21060  1.0000
  C   C102      1.0  0.76520  0.08220  0.21060  1.0000
  C   C103      1.0  0.76520  0.41780  0.28940  1.0000
  C   C104      1.0  0.73480  0.58220  0.28940  1.0000
  C   C105      1.0  0.13650  0.13750  0.02370  1.0000
  C   C106      1.0  0.36350  0.86250  0.02370  1.0000
  C   C107      1.0  0.36350  0.63750  0.47630  1.0000
  C   C108      1.0  0.13650  0.36250  0.47630  1.0000
  C   C109      1.0  0.86350  0.86250  0.97630  1.0000
  C   C110      1.0  0.63650  0.13750  0.97630  1.0000
  C   C111      1.0  0.63650  0.36250  0.52370  1.0000
  C   C112      1.0  0.86350  0.63750  0.52370  1.0000
  C   C113      1.0  0.10210  0.11030  0.20680  1.0000
  C   C114      1.0  0.39790  0.88970  0.20680  1.0000
  C   C115      1.0  0.39790  0.61030  0.29320  1.0000
  C   C116      1.0  0.10210  0.38970  0.29320  1.0000
  C   C117      1.0  0.89790  0.88970  0.79320  1.0000
  C   C118      1.0  0.60210  0.11030  0.79320  1.0000
  C   C119      1.0  0.60210  0.38970  0.70680  1.0000
  C   C120      1.0  0.89790  0.61030  0.70680  1.0000
  C   C121      1.0  0.03510  0.12830  0.04670  1.0000
  C   C122      1.0  0.46490  0.87170  0.04670  1.0000
  C   C123      1.0  0.46490  0.62830  0.45330  1.0000
  C   C124      1.0  0.03510  0.37170  0.45330  1.0000
  C   C125      1.0  0.96490  0.87170  0.95330  1.0000
  C   C126      1.0  0.53510  0.12830  0.95330  1.0000
  C   C127      1.0  0.53510  0.37170  0.54670  1.0000
  C   C128      1.0  0.96490  0.62830  0.54670  1.0000
  C   C129      1.0  0.12730  0.15520  0.89860  1.0000
  C   C130      1.0  0.37270  0.84480  0.89860  1.0000
  C   C131      1.0  0.37270  0.65520  0.60140  1.0000
  C   C132      1.0  0.12730  0.34480  0.60140  1.0000
  C   C133      1.0  0.87270  0.84480  0.10140  1.0000
  C   C134      1.0  0.62730  0.15520  0.10140  1.0000
  C   C135      1.0  0.62730  0.34480  0.39860  1.0000
  C   C136      1.0  0.87270  0.65520  0.39860  1.0000
  N   N1        1.0  0.32669  0.20010  0.98830  1.0000
  N   N2        1.0  0.17331  0.79990  0.98830  1.0000
  N   N3        1.0  0.17331  0.70010  0.51170  1.0000
  N   N4        1.0  0.32669  0.29990  0.51170  1.0000
  N   N5        1.0  0.67331  0.79990  0.01170  1.0000
  N   N6        1.0  0.82669  0.20010  0.01170  1.0000
  N   N7        1.0  0.82669  0.29990  0.48830  1.0000
  N   N8        1.0  0.67331  0.70010  0.48830  1.0000
  N   N9        1.0  0.31981  0.12260  0.06110  1.0000
  N   N10       1.0  0.18019  0.87740  0.06110  1.0000
  N   N11       1.0  0.18019  0.62260  0.43890  1.0000
  N   N12       1.0  0.31981  0.37740  0.43890  1.0000
  N   N13       1.0  0.68019  0.87740  0.93890  1.0000
  N   N14       1.0  0.81981  0.12260  0.93890  1.0000
  N   N15       1.0  0.81981  0.37740  0.56110  1.0000
  N   N16       1.0  0.68019  0.62260  0.56110  1.0000
  N   N17       1.0  0.35518  0.12860  0.14400  1.0000
  N   N18       1.0  0.14482  0.87140  0.14400  1.0000
  N   N19       1.0  0.14482  0.62860  0.35600  1.0000
  N   N20       1.0  0.35518  0.37140  0.35600  1.0000
  N   N21       1.0  0.64482  0.87140  0.85600  1.0000
  N   N22       1.0  0.85518  0.12860  0.85600  1.0000
  N   N23       1.0  0.85518  0.37140  0.64400  1.0000
  N   N24       1.0  0.64482  0.62860  0.64400  1.0000
  N   N25       1.0  0.38740  0.21080  0.12600  1.0000
  N   N26       1.0  0.11260  0.78920  0.12600  1.0000
  N   N27       1.0  0.11260  0.71080  0.37400  1.0000
  N   N28       1.0  0.38740  0.28920  0.37400  1.0000
  N   N29       1.0  0.61260  0.78920  0.87400  1.0000
  N   N30       1.0  0.88740  0.21080  0.87400  1.0000
  N   N31       1.0  0.88740  0.28920  0.62600  1.0000
  N   N32       1.0  0.61260  0.71080  0.62600  1.0000
  N   N33       1.0  0.25000  0.00000  0.25160  1.0000
  N   N34       1.0  0.25000  0.50000  0.24840  1.0000
  N   N35       1.0  0.75000  0.00000  0.74840  1.0000
  N   N36       1.0  0.75000  0.50000  0.75160  1.0000
  N   N37       1.0  0.25000  0.00000  0.84870  1.0000
  N   N38       1.0  0.25000  0.50000  0.65130  1.0000
  N   N39       1.0  0.75000  0.00000  0.15130  1.0000
  N   N40       1.0  0.75000  0.50000  0.34870  1.0000
  N   N41       1.0  0.09390  0.12910  0.08610  1.0000
  N   N42       1.0  0.40610  0.87090  0.08610  1.0000
  N   N43       1.0  0.40610  0.62910  0.41390  1.0000
  N   N44       1.0  0.09390  0.37090  0.41390  1.0000
  N   N45       1.0  0.90610  0.87090  0.91390  1.0000
  N   N46       1.0  0.59390  0.12910  0.91390  1.0000
  N   N47       1.0  0.59390  0.37090  0.58610  1.0000
  N   N48       1.0  0.90610  0.62910  0.58610  1.0000
  O   O1        1.0  0.48075  0.68170  0.88330  1.0000
  O   O2        1.0  0.01925  0.31830  0.88330  1.0000
  O   O3        1.0  0.01925  0.18170  0.61670  1.0000
  O   O4        1.0  0.48075  0.81830  0.61670  1.0000
  O   O5        1.0  0.51925  0.31830  0.11670  1.0000
  O   O6        1.0  0.98075  0.68170  0.11670  1.0000
  O   O7        1.0  0.98075  0.81830  0.38330  1.0000
  O   O8        1.0  0.51925  0.18170  0.38330  1.0000
  O   O9        1.0  0.50303  0.58480  0.73950  1.0000
  O   O10       1.0  0.99697  0.41520  0.73950  1.0000
  O   O11       1.0  0.99697  0.08480  0.76050  1.0000
  O   O12       1.0  0.50303  0.91520  0.76050  1.0000
  O   O13       1.0  0.49697  0.41520  0.26050  1.0000
  O   O14       1.0  0.00303  0.58480  0.26050  1.0000
  O   O15       1.0  0.00303  0.91520  0.23950  1.0000
  O   O16       1.0  0.49697  0.08480  0.23950  1.0000
  O   O17       1.0  0.18601  0.13350  0.06170  1.0000
  O   O18       1.0  0.31399  0.86650  0.06170  1.0000
  O   O19       1.0  0.31399  0.63350  0.43830  1.0000
  O   O20       1.0  0.18601  0.36650  0.43830  1.0000
  O   O21       1.0  0.81399  0.86650  0.93830  1.0000
  O   O22       1.0  0.68601  0.13350  0.93830  1.0000
  O   O23       1.0  0.68601  0.36650  0.56170  1.0000
  O   O24       1.0  0.81399  0.63350  0.56170  1.0000
