data_image0
_chemical_formula_structural       Cu2H40C50N4O6Cu2H40C50N4O6
_chemical_formula_sum              "Cu4 H80 C100 N8 O12"
_cell_length_a       10.2706
_cell_length_b       10.5938
_cell_length_c       20.1325
_cell_angle_alpha    90
_cell_angle_beta     102.307
_cell_angle_gamma    90

_space_group_name_H-M_alt    "P 1"
_space_group_IT_number       1

loop_
  _space_group_symop_operation_xyz
  'x, y, z'

loop_
  _atom_site_type_symbol
  _atom_site_label
  _atom_site_symmetry_multiplicity
  _atom_site_fract_x
  _atom_site_fract_y
  _atom_site_fract_z
  _atom_site_occupancy
  Cu  Cu1       1.0  0.58548  0.21558  0.81732  1.0000
  Cu  Cu2       1.0  0.41452  0.46559  0.18268  1.0000
  H   H1        1.0  0.40780  0.48910  0.66080  1.0000
  H   H2        1.0  0.59220  0.23910  0.33920  1.0000
  H   H3        1.0  0.47600  0.05825  0.56790  1.0000
  H   H4        1.0  0.52400  0.30825  0.43210  1.0000
  H   H5        1.0  0.63840  0.05765  0.49380  1.0000
  H   H6        1.0  0.36160  0.30765  0.50620  1.0000
  H   H7        1.0  0.82040  0.47245  0.46170  1.0000
  H   H8        1.0  0.17960  0.22245  0.53830  1.0000
  H   H9        1.0  0.92570  0.29905  0.51820  1.0000
  H   H10       1.0  0.07430  0.04905  0.48180  1.0000
  H   H11       1.0  0.85560  0.21415  0.60990  1.0000
  H   H12       1.0  0.14440  0.46415  0.39010  1.0000
  H   H13       1.0  0.77410  0.13455  0.68450  1.0000
  H   H14       1.0  0.22590  0.38455  0.31550  1.0000
  H   H15       1.0  0.76840  0.46770  0.76040  1.0000
  H   H16       1.0  0.23160  0.21770  0.23960  1.0000
  H   H17       1.0  0.93470  0.13040  0.85550  1.0000
  H   H18       1.0  0.06530  0.38040  0.14450  1.0000
  H   H19       1.0  0.96320  0.48555  0.85270  1.0000
  H   H20       1.0  0.03680  0.23555  0.14730  1.0000
  H   H21       1.0  0.95510  0.42740  0.71560  1.0000
  H   H22       1.0  0.04490  0.17740  0.28440  1.0000
  H   H23       1.0  0.08750  0.46330  0.63790  1.0000
  H   H24       1.0  0.91250  0.21330  0.36210  1.0000
  H   H25       1.0  0.22600  0.13640  0.65010  1.0000
  H   H26       1.0  0.77400  0.38640  0.34990  1.0000
  H   H27       1.0  0.23170  0.27300  0.73830  1.0000
  H   H28       1.0  0.76830  0.02300  0.26170  1.0000
  H   H29       1.0  0.09420  0.24255  0.81360  1.0000
  H   H30       1.0  0.90580  0.49255  0.18640  1.0000
  H   H31       1.0  0.48370  0.12775  0.93580  1.0000
  H   H32       1.0  0.51630  0.37775  0.06420  1.0000
  H   H33       1.0  0.33530  0.18400  0.00170  1.0000
  H   H34       1.0  0.66470  0.43400  0.99830  1.0000
  H   H35       1.0  0.21330  0.36845  0.97640  1.0000
  H   H36       1.0  0.78670  0.11845  0.02360  1.0000
  H   H37       1.0  0.24110  0.48860  0.88430  1.0000
  H   H38       1.0  0.75890  0.23860  0.11570  1.0000
  H   H39       1.0  0.39300  0.42560  0.82190  1.0000
  H   H40       1.0  0.60700  0.17560  0.17810  1.0000
  C   C1        1.0  0.65560  0.28915  0.66905  1.0000
  C   C2        1.0  0.34440  0.03915  0.33095  1.0000
  C   C3        1.0  0.54900  0.35145  0.69039  1.0000
  C   C4        1.0  0.45100  0.10145  0.30961  1.0000
  C   C5        1.0  0.48160  0.45165  0.64900  1.0000
  C   C6        1.0  0.51840  0.20165  0.35100  1.0000
  C   C7        1.0  0.52230  0.49300  0.59347  1.0000
  C   C8        1.0  0.47770  0.24300  0.40653  1.0000
  C   C9        1.0  0.63460  0.43920  0.57301  1.0000
  C   C10       1.0  0.36540  0.18920  0.42699  1.0000
  C   C11       1.0  0.68170  0.48895  0.51751  1.0000
  C   C12       1.0  0.31830  0.23895  0.48249  1.0000
  C   C13       1.0  0.78970  0.43785  0.49796  1.0000
  C   C14       1.0  0.21030  0.18785  0.50204  1.0000
  C   C15       1.0  0.85330  0.33465  0.53224  1.0000
  C   C16       1.0  0.14670  0.08465  0.46776  1.0000
  C   C17       1.0  0.81090  0.28325  0.58730  1.0000
  C   C18       1.0  0.18910  0.03325  0.41270  1.0000
  C   C19       1.0  0.69920  0.33530  0.60966  1.0000
  C   C20       1.0  0.30080  0.08530  0.39034  1.0000
  C   C21       1.0  0.71900  0.18280  0.70569  1.0000
  C   C22       1.0  0.28100  0.43280  0.29431  1.0000
  C   C23       1.0  0.77720  0.03355  0.79526  1.0000
  C   C24       1.0  0.22280  0.28355  0.20474  1.0000
  C   C25       1.0  0.71240  0.48845  0.85270  1.0000
  C   C26       1.0  0.28760  0.23845  0.14730  1.0000
  C   C27       1.0  0.92690  0.05795  0.82547  1.0000
  C   C28       1.0  0.07310  0.30795  0.17453  1.0000
  C   C29       1.0  0.00980  0.08155  0.77353  1.0000
  C   C30       1.0  0.99020  0.33155  0.22647  1.0000
  C   C31       1.0  0.00970  0.49830  0.72022  1.0000
  C   C32       1.0  0.99030  0.24830  0.27978  1.0000
  C   C33       1.0  0.08970  0.01915  0.67380  1.0000
  C   C34       1.0  0.91030  0.26915  0.32620  1.0000
  C   C35       1.0  0.17200  0.12230  0.68100  1.0000
  C   C36       1.0  0.82800  0.37230  0.31900  1.0000
  C   C37       1.0  0.17470  0.20385  0.73310  1.0000
  C   C38       1.0  0.82530  0.45385  0.26690  1.0000
  C   C39       1.0  0.09290  0.18465  0.77876  1.0000
  C   C40       1.0  0.90710  0.43465  0.22124  1.0000
  C   C41       1.0  0.43450  0.20150  0.92536  1.0000
  C   C42       1.0  0.56550  0.45150  0.07464  1.0000
  C   C43       1.0  0.34560  0.23450  0.96542  1.0000
  C   C44       1.0  0.65440  0.48450  0.03458  1.0000
  C   C45       1.0  0.27320  0.34340  0.95018  1.0000
  C   C46       1.0  0.72680  0.09340  0.04982  1.0000
  C   C47       1.0  0.29020  0.41500  0.89580  1.0000
  C   C48       1.0  0.70980  0.16500  0.10420  1.0000
  C   C49       1.0  0.38120  0.37620  0.85837  1.0000
  C   C50       1.0  0.61880  0.12620  0.14163  1.0000
  N   N1        1.0  0.70730  0.14710  0.76558  1.0000
  N   N2        1.0  0.29270  0.39710  0.23442  1.0000
  N   N3        1.0  0.45330  0.27025  0.87245  1.0000
  N   N4        1.0  0.54670  0.02025  0.12755  1.0000
  O   O1        1.0  0.50615  0.32500  0.74523  1.0000
  O   O2        1.0  0.49385  0.07500  0.25477  1.0000
  O   O3        1.0  0.63790  0.06730  0.87450  1.0000
  O   O4        1.0  0.36210  0.31730  0.12550  1.0000
  O   O5        1.0  0.73725  0.38030  0.87591  1.0000
  O   O6        1.0  0.26275  0.13030  0.12409  1.0000
  Cu  Cu3       1.0  0.58548  0.71558  0.81732  1.0000
  Cu  Cu4       1.0  0.41452  0.96558  0.18268  1.0000
  H   H41       1.0  0.40780  0.98910  0.66080  1.0000
  H   H42       1.0  0.59220  0.73910  0.33920  1.0000
  H   H43       1.0  0.47600  0.55825  0.56790  1.0000
  H   H44       1.0  0.52400  0.80825  0.43210  1.0000
  H   H45       1.0  0.63840  0.55765  0.49380  1.0000
  H   H46       1.0  0.36160  0.80765  0.50620  1.0000
  H   H47       1.0  0.82040  0.97245  0.46170  1.0000
  H   H48       1.0  0.17960  0.72245  0.53830  1.0000
  H   H49       1.0  0.92570  0.79905  0.51820  1.0000
  H   H50       1.0  0.07430  0.54905  0.48180  1.0000
  H   H51       1.0  0.85560  0.71415  0.60990  1.0000
  H   H52       1.0  0.14440  0.96415  0.39010  1.0000
  H   H53       1.0  0.77410  0.63455  0.68450  1.0000
  H   H54       1.0  0.22590  0.88455  0.31550  1.0000
  H   H55       1.0  0.76840  0.96770  0.76040  1.0000
  H   H56       1.0  0.23160  0.71770  0.23960  1.0000
  H   H57       1.0  0.93470  0.63040  0.85550  1.0000
  H   H58       1.0  0.06530  0.88040  0.14450  1.0000
  H   H59       1.0  0.96320  0.98555  0.85270  1.0000
  H   H60       1.0  0.03680  0.73555  0.14730  1.0000
  H   H61       1.0  0.95510  0.92740  0.71560  1.0000
  H   H62       1.0  0.04490  0.67740  0.28440  1.0000
  H   H63       1.0  0.08750  0.96330  0.63790  1.0000
  H   H64       1.0  0.91250  0.71330  0.36210  1.0000
  H   H65       1.0  0.22600  0.63640  0.65010  1.0000
  H   H66       1.0  0.77400  0.88640  0.34990  1.0000
  H   H67       1.0  0.23170  0.77300  0.73830  1.0000
  H   H68       1.0  0.76830  0.52300  0.26170  1.0000
  H   H69       1.0  0.09420  0.74255  0.81360  1.0000
  H   H70       1.0  0.90580  0.99255  0.18640  1.0000
  H   H71       1.0  0.48370  0.62775  0.93580  1.0000
  H   H72       1.0  0.51630  0.87775  0.06420  1.0000
  H   H73       1.0  0.33530  0.68400  0.00170  1.0000
  H   H74       1.0  0.66470  0.93400  0.99830  1.0000
  H   H75       1.0  0.21330  0.86845  0.97640  1.0000
  H   H76       1.0  0.78670  0.61845  0.02360  1.0000
  H   H77       1.0  0.24110  0.98860  0.88430  1.0000
  H   H78       1.0  0.75890  0.73860  0.11570  1.0000
  H   H79       1.0  0.39300  0.92560  0.82190  1.0000
  H   H80       1.0  0.60700  0.67560  0.17810  1.0000
  C   C51       1.0  0.65560  0.78915  0.66905  1.0000
  C   C52       1.0  0.34440  0.53915  0.33095  1.0000
  C   C53       1.0  0.54900  0.85145  0.69039  1.0000
  C   C54       1.0  0.45100  0.60145  0.30961  1.0000
  C   C55       1.0  0.48160  0.95165  0.64900  1.0000
  C   C56       1.0  0.51840  0.70165  0.35100  1.0000
  C   C57       1.0  0.52230  0.99300  0.59347  1.0000
  C   C58       1.0  0.47770  0.74300  0.40653  1.0000
  C   C59       1.0  0.63460  0.93920  0.57301  1.0000
  C   C60       1.0  0.36540  0.68920  0.42699  1.0000
  C   C61       1.0  0.68170  0.98895  0.51751  1.0000
  C   C62       1.0  0.31830  0.73895  0.48249  1.0000
  C   C63       1.0  0.78970  0.93785  0.49796  1.0000
  C   C64       1.0  0.21030  0.68785  0.50204  1.0000
  C   C65       1.0  0.85330  0.83465  0.53224  1.0000
  C   C66       1.0  0.14670  0.58465  0.46776  1.0000
  C   C67       1.0  0.81090  0.78325  0.58730  1.0000
  C   C68       1.0  0.18910  0.53325  0.41270  1.0000
  C   C69       1.0  0.69920  0.83530  0.60966  1.0000
  C   C70       1.0  0.30080  0.58530  0.39034  1.0000
  C   C71       1.0  0.71900  0.68280  0.70569  1.0000
  C   C72       1.0  0.28100  0.93280  0.29431  1.0000
  C   C73       1.0  0.77720  0.53355  0.79526  1.0000
  C   C74       1.0  0.22280  0.78355  0.20474  1.0000
  C   C75       1.0  0.71240  0.98845  0.85270  1.0000
  C   C76       1.0  0.28760  0.73845  0.14730  1.0000
  C   C77       1.0  0.92690  0.55795  0.82547  1.0000
  C   C78       1.0  0.07310  0.80795  0.17453  1.0000
  C   C79       1.0  0.00980  0.58155  0.77353  1.0000
  C   C80       1.0  0.99020  0.83155  0.22647  1.0000
  C   C81       1.0  0.00970  0.99830  0.72022  1.0000
  C   C82       1.0  0.99030  0.74830  0.27978  1.0000
  C   C83       1.0  0.08970  0.51915  0.67380  1.0000
  C   C84       1.0  0.91030  0.76915  0.32620  1.0000
  C   C85       1.0  0.17200  0.62230  0.68100  1.0000
  C   C86       1.0  0.82800  0.87230  0.31900  1.0000
  C   C87       1.0  0.17470  0.70385  0.73310  1.0000
  C   C88       1.0  0.82530  0.95385  0.26690  1.0000
  C   C89       1.0  0.09290  0.68465  0.77876  1.0000
  C   C90       1.0  0.90710  0.93465  0.22124  1.0000
  C   C91       1.0  0.43450  0.70150  0.92536  1.0000
  C   C92       1.0  0.56550  0.95150  0.07464  1.0000
  C   C93       1.0  0.34560  0.73450  0.96542  1.0000
  C   C94       1.0  0.65440  0.98450  0.03458  1.0000
  C   C95       1.0  0.27320  0.84340  0.95018  1.0000
  C   C96       1.0  0.72680  0.59340  0.04982  1.0000
  C   C97       1.0  0.29020  0.91500  0.89580  1.0000
  C   C98       1.0  0.70980  0.66500  0.10420  1.0000
  C   C99       1.0  0.38120  0.87620  0.85837  1.0000
  C   C100      1.0  0.61880  0.62620  0.14163  1.0000
  N   N5        1.0  0.70730  0.64710  0.76558  1.0000
  N   N6        1.0  0.29270  0.89710  0.23442  1.0000
  N   N7        1.0  0.45330  0.77025  0.87245  1.0000
  N   N8        1.0  0.54670  0.52025  0.12755  1.0000
  O   O7        1.0  0.50615  0.82500  0.74523  1.0000
  O   O8        1.0  0.49385  0.57500  0.25477  1.0000
  O   O9        1.0  0.63790  0.56730  0.87450  1.0000
  O   O10       1.0  0.36210  0.81730  0.12550  1.0000
  O   O11       1.0  0.73725  0.88030  0.87591  1.0000
  O   O12       1.0  0.26275  0.63030  0.12409  1.0000
