data_image0
_chemical_formula_structural       Tm4H56C56N12O36F16
_chemical_formula_sum              "Tm4 H56 C56 N12 O36 F16"
_cell_length_a       11.2742
_cell_length_b       12.3634
_cell_length_c       20.1874
_cell_angle_alpha    73.6173
_cell_angle_beta     73.7853
_cell_angle_gamma    62.8739

_space_group_name_H-M_alt    "P 1"
_space_group_IT_number       1

loop_
  _space_group_symop_operation_xyz
  'x, y, z'

loop_
  _atom_site_type_symbol
  _atom_site_label
  _atom_site_symmetry_multiplicity
  _atom_site_fract_x
  _atom_site_fract_y
  _atom_site_fract_z
  _atom_site_occupancy
  Tm  Tm1       1.0  0.94085  0.89099  0.30221  1.0000
  Tm  Tm2       1.0  0.13405  0.60901  0.19779  1.0000
  Tm  Tm3       1.0  0.05915  0.10901  0.69779  1.0000
  Tm  Tm4       1.0  0.86595  0.39099  0.80221  1.0000
  H   H1        1.0  0.61110  0.98000  0.38120  1.0000
  H   H2        1.0  0.97230  0.52000  0.11880  1.0000
  H   H3        1.0  0.38890  0.02000  0.61880  1.0000
  H   H4        1.0  0.02770  0.48000  0.88120  1.0000
  H   H5        1.0  0.63240  0.25660  0.34040  1.0000
  H   H6        1.0  0.22940  0.24340  0.15960  1.0000
  H   H7        1.0  0.36760  0.74340  0.65960  1.0000
  H   H8        1.0  0.77060  0.75660  0.84040  1.0000
  H   H9        1.0  0.53670  0.29850  0.40990  1.0000
  H   H10       1.0  0.24510  0.20150  0.09010  1.0000
  H   H11       1.0  0.46330  0.70150  0.59010  1.0000
  H   H12       1.0  0.75490  0.79850  0.90990  1.0000
  H   H13       1.0  0.47580  0.32910  0.34250  1.0000
  H   H14       1.0  0.14740  0.17090  0.15750  1.0000
  H   H15       1.0  0.52420  0.67090  0.65750  1.0000
  H   H16       1.0  0.85260  0.82910  0.84250  1.0000
  H   H17       1.0  0.40600  0.07390  0.44710  1.0000
  H   H18       1.0  0.92700  0.42610  0.05290  1.0000
  H   H19       1.0  0.59400  0.92610  0.55290  1.0000
  H   H20       1.0  0.07300  0.57390  0.94710  1.0000
  H   H21       1.0  0.33010  0.21590  0.42070  1.0000
  H   H22       1.0  0.96670  0.28410  0.07930  1.0000
  H   H23       1.0  0.66990  0.78410  0.57930  1.0000
  H   H24       1.0  0.03330  0.71590  0.92070  1.0000
  H   H25       1.0  0.40930  0.16950  0.48290  1.0000
  H   H26       1.0  0.06170  0.33050  0.01710  1.0000
  H   H27       1.0  0.59070  0.83050  0.51710  1.0000
  H   H28       1.0  0.93830  0.66950  0.98290  1.0000
  H   H29       1.0  0.15380  0.99740  0.32040  1.0000
  H   H30       1.0  0.47160  0.50260  0.17960  1.0000
  H   H31       1.0  0.84620  0.00260  0.67960  1.0000
  H   H32       1.0  0.52840  0.49740  0.82040  1.0000
  H   H33       1.0  0.27250  0.09960  0.32220  1.0000
  H   H34       1.0  0.69430  0.40040  0.17780  1.0000
  H   H35       1.0  0.72750  0.90040  0.67780  1.0000
  H   H36       1.0  0.30570  0.59960  0.82220  1.0000
  H   H37       1.0  0.18570  0.20620  0.36560  1.0000
  H   H38       1.0  0.75750  0.29380  0.13440  1.0000
  H   H39       1.0  0.81430  0.79380  0.63440  1.0000
  H   H40       1.0  0.24250  0.70620  0.86560  1.0000
  H   H41       1.0  0.21980  0.23760  0.28360  1.0000
  H   H42       1.0  0.74100  0.26240  0.21640  1.0000
  H   H43       1.0  0.78020  0.76240  0.71640  1.0000
  H   H44       1.0  0.25900  0.73760  0.78360  1.0000
  H   H45       1.0  0.88690  0.27680  0.30340  1.0000
  H   H46       1.0  0.46710  0.22320  0.19660  1.0000
  H   H47       1.0  0.11310  0.72320  0.69660  1.0000
  H   H48       1.0  0.53290  0.77680  0.80340  1.0000
  H   H49       1.0  0.97790  0.35090  0.28070  1.0000
  H   H50       1.0  0.60950  0.14910  0.21930  1.0000
  H   H51       1.0  0.02210  0.64910  0.71930  1.0000
  H   H52       1.0  0.39050  0.85090  0.78070  1.0000
  H   H53       1.0  0.92620  0.31210  0.36050  1.0000
  H   H54       1.0  0.59880  0.18790  0.13950  1.0000
  H   H55       1.0  0.07380  0.68790  0.63950  1.0000
  H   H56       1.0  0.40120  0.81210  0.86050  1.0000
  C   C1        1.0  0.27500  0.75000  0.25000  1.0000
  C   C2        1.0  0.72500  0.25000  0.75000  1.0000
  C   C3        1.0  0.41100  0.75000  0.25000  1.0000
  C   C4        1.0  0.58900  0.25000  0.75000  1.0000
  C   C5        1.0  0.43730  0.85360  0.22340  1.0000
  C   C6        1.0  0.51430  0.64640  0.27660  1.0000
  C   C7        1.0  0.56270  0.14640  0.77660  1.0000
  C   C8        1.0  0.48570  0.35360  0.72340  1.0000
  C   C9        1.0  0.55966  0.85498  0.22370  1.0000
  C   C10       1.0  0.63834  0.64502  0.27630  1.0000
  C   C11       1.0  0.44034  0.14502  0.77630  1.0000
  C   C12       1.0  0.36166  0.35498  0.72370  1.0000
  C   C13       1.0  0.66330  0.75000  0.25000  1.0000
  C   C14       1.0  0.33670  0.25000  0.75000  1.0000
  C   C15       1.0  0.79870  0.75000  0.25000  1.0000
  C   C16       1.0  0.20130  0.25000  0.75000  1.0000
  C   C17       1.0  0.06700  0.56550  0.34770  1.0000
  C   C18       1.0  0.98020  0.93450  0.15230  1.0000
  C   C19       1.0  0.93300  0.43450  0.65230  1.0000
  C   C20       1.0  0.01980  0.06550  0.84770  1.0000
  C   C21       1.0  0.03235  0.53141  0.42629  1.0000
  C   C22       1.0  0.99005  0.96859  0.07371  1.0000
  C   C23       1.0  0.96765  0.46859  0.57371  1.0000
  C   C24       1.0  0.00995  0.03141  0.92629  1.0000
  C   C25       1.0  0.90250  0.54466  0.45974  1.0000
  C   C26       1.0  0.90690  0.95534  0.04026  1.0000
  C   C27       1.0  0.09750  0.45534  0.54026  1.0000
  C   C28       1.0  0.09310  0.04466  0.95974  1.0000
  C   C29       1.0  0.12814  0.48659  0.46853  1.0000
  C   C30       1.0  0.08326  0.01341  0.03147  1.0000
  C   C31       1.0  0.87186  0.51341  0.53147  1.0000
  C   C32       1.0  0.91674  0.98659  0.96853  1.0000
  C   C33       1.0  0.62490  0.05240  0.36660  1.0000
  C   C34       1.0  0.04390  0.44760  0.13340  1.0000
  C   C35       1.0  0.37510  0.94760  0.63340  1.0000
  C   C36       1.0  0.95610  0.55240  0.86660  1.0000
  C   C37       1.0  0.54490  0.26910  0.36890  1.0000
  C   C38       1.0  0.18290  0.23090  0.13110  1.0000
  C   C39       1.0  0.45510  0.73090  0.63110  1.0000
  C   C40       1.0  0.81710  0.76910  0.86890  1.0000
  C   C41       1.0  0.40850  0.15310  0.43930  1.0000
  C   C42       1.0  0.00090  0.34690  0.06070  1.0000
  C   C43       1.0  0.59150  0.84690  0.56070  1.0000
  C   C44       1.0  0.99910  0.65310  0.93930  1.0000
  C   C45       1.0  0.07440  0.06890  0.31670  1.0000
  C   C46       1.0  0.46000  0.43110  0.18330  1.0000
  C   C47       1.0  0.92560  0.93110  0.68330  1.0000
  C   C48       1.0  0.54000  0.56890  0.81670  1.0000
  C   C49       1.0  0.19890  0.17990  0.32270  1.0000
  C   C50       1.0  0.70150  0.32010  0.17730  1.0000
  C   C51       1.0  0.80110  0.82010  0.67730  1.0000
  C   C52       1.0  0.29850  0.67990  0.82270  1.0000
  C   C53       1.0  0.95680  0.28780  0.31540  1.0000
  C   C54       1.0  0.56000  0.21220  0.18460  1.0000
  C   C55       1.0  0.04320  0.71220  0.68460  1.0000
  C   C56       1.0  0.44000  0.78780  0.81540  1.0000
  N   N1        1.0  0.52971  0.15338  0.38980  1.0000
  N   N2        1.0  0.07289  0.34662  0.11020  1.0000
  N   N3        1.0  0.47029  0.84662  0.61020  1.0000
  N   N4        1.0  0.92711  0.65338  0.88980  1.0000
  N   N5        1.0  0.07592  0.17366  0.31770  1.0000
  N   N6        1.0  0.56728  0.32634  0.18230  1.0000
  N   N7        1.0  0.92408  0.82634  0.68230  1.0000
  N   N8        1.0  0.43272  0.67366  0.81770  1.0000
  N   N9        1.0  0.93264  0.81262  0.45130  1.0000
  N   N10       1.0  0.19656  0.68738  0.04870  1.0000
  N   N11       1.0  0.06736  0.18738  0.54870  1.0000
  N   N12       1.0  0.80344  0.31262  0.95130  1.0000
  O   O1        1.0  0.17220  0.83806  0.27134  1.0000
  O   O2        1.0  0.28160  0.66194  0.22866  1.0000
  O   O3        1.0  0.82780  0.16194  0.72866  1.0000
  O   O4        1.0  0.71840  0.33806  0.77134  1.0000
  O   O5        1.0  0.79183  0.83338  0.27656  1.0000
  O   O6        1.0  0.90177  0.66667  0.22344  1.0000
  O   O7        1.0  0.20817  0.16662  0.72344  1.0000
  O   O8        1.0  0.09823  0.33338  0.77656  1.0000
  O   O9        1.0  0.03768  0.67625  0.32019  1.0000
  O   O10       1.0  0.03412  0.82375  0.17981  1.0000
  O   O11       1.0  0.96232  0.32375  0.67981  1.0000
  O   O12       1.0  0.96588  0.17625  0.82019  1.0000
  O   O13       1.0  0.12661  0.48219  0.31239  1.0000
  O   O14       1.0  0.92119  0.01781  0.18761  1.0000
  O   O15       1.0  0.87339  0.51781  0.68761  1.0000
  O   O16       1.0  0.07881  0.98219  0.81239  1.0000
  O   O17       1.0  0.73151  0.04990  0.32628  1.0000
  O   O18       1.0  0.10769  0.45010  0.17372  1.0000
  O   O19       1.0  0.26849  0.95010  0.67372  1.0000
  O   O20       1.0  0.89231  0.54990  0.82628  1.0000
  O   O21       1.0  0.97232  0.05986  0.31090  1.0000
  O   O22       1.0  0.34308  0.44014  0.18910  1.0000
  O   O23       1.0  0.02768  0.94014  0.68910  1.0000
  O   O24       1.0  0.65692  0.55986  0.81090  1.0000
  O   O25       1.0  0.02830  0.83443  0.40997  1.0000
  O   O26       1.0  0.27270  0.66557  0.09003  1.0000
  O   O27       1.0  0.97170  0.16557  0.59003  1.0000
  O   O28       1.0  0.72730  0.33443  0.90997  1.0000
  O   O29       1.0  0.93300  0.77568  0.51392  1.0000
  O   O30       1.0  0.22260  0.72432  0.98608  1.0000
  O   O31       1.0  0.06700  0.22432  0.48608  1.0000
  O   O32       1.0  0.77740  0.27568  0.01392  1.0000
  O   O33       1.0  0.83700  0.82970  0.42330  1.0000
  O   O34       1.0  0.09000  0.67030  0.07670  1.0000
  O   O35       1.0  0.16300  0.17030  0.57670  1.0000
  O   O36       1.0  0.91000  0.32970  0.92330  1.0000
  F   F1        1.0  0.34333  0.95924  0.19370  1.0000
  F   F2        1.0  0.49627  0.54076  0.30630  1.0000
  F   F3        1.0  0.65667  0.04076  0.80630  1.0000
  F   F4        1.0  0.50373  0.45924  0.69370  1.0000
  F   F5        1.0  0.57600  0.96020  0.19560  1.0000
  F   F6        1.0  0.73180  0.53980  0.30440  1.0000
  F   F7        1.0  0.42400  0.03980  0.80440  1.0000
  F   F8        1.0  0.26820  0.46020  0.69560  1.0000
  F   F9        1.0  0.80558  0.58576  0.42128  1.0000
  F   F10       1.0  0.81262  0.91424  0.07872  1.0000
  F   F11       1.0  0.19442  0.41424  0.57872  1.0000
  F   F12       1.0  0.18738  0.08576  0.92128  1.0000
  F   F13       1.0  0.25648  0.47264  0.43900  1.0000
  F   F14       1.0  0.16812  0.02736  0.06100  1.0000
  F   F15       1.0  0.74352  0.52736  0.56100  1.0000
  F   F16       1.0  0.83188  0.97264  0.93900  1.0000
