data_image0
_chemical_formula_structural       Cu4H44C48N8Cl4O28Cu4H44C48N8Cl4O28
_chemical_formula_sum              "Cu8 H88 C96 N16 Cl8 O56"
_cell_length_a       13.0812
_cell_length_b       14.063
_cell_length_c       15.063
_cell_angle_alpha    90
_cell_angle_beta     90
_cell_angle_gamma    90

_space_group_name_H-M_alt    "P 1"
_space_group_IT_number       1

loop_
  _space_group_symop_operation_xyz
  'x, y, z'

loop_
  _atom_site_type_symbol
  _atom_site_label
  _atom_site_symmetry_multiplicity
  _atom_site_fract_x
  _atom_site_fract_y
  _atom_site_fract_z
  _atom_site_occupancy
  Cu  Cu1       1.0  0.45155  0.83256  0.38770  1.0000
  Cu  Cu2       1.0  0.29845  0.16744  0.88770  1.0000
  Cu  Cu3       1.0  0.20155  0.66744  0.61230  1.0000
  Cu  Cu4       1.0  0.04845  0.33256  0.11230  1.0000
  H   H1        1.0  0.34800  0.67100  0.42000  1.0000
  H   H2        1.0  0.40200  0.32900  0.92000  1.0000
  H   H3        1.0  0.09800  0.82900  0.58000  1.0000
  H   H4        1.0  0.15200  0.17100  0.08000  1.0000
  H   H5        1.0  0.26796  0.96036  0.35253  1.0000
  H   H6        1.0  0.48204  0.03964  0.85253  1.0000
  H   H7        1.0  0.01796  0.53964  0.64747  1.0000
  H   H8        1.0  0.23204  0.46036  0.14747  1.0000
  H   H9        1.0  0.19248  0.03049  0.23046  1.0000
  H   H10       1.0  0.05752  0.96951  0.73046  1.0000
  H   H11       1.0  0.44248  0.46951  0.76954  1.0000
  H   H12       1.0  0.30752  0.53049  0.26954  1.0000
  H   H13       1.0  0.26332  0.00500  0.09116  1.0000
  H   H14       1.0  0.48667  0.99500  0.59116  1.0000
  H   H15       1.0  0.01333  0.49500  0.90884  1.0000
  H   H16       1.0  0.23667  0.50500  0.40884  1.0000
  H   H17       1.0  0.40817  0.91103  0.07728  1.0000
  H   H18       1.0  0.34183  0.08897  0.57728  1.0000
  H   H19       1.0  0.15817  0.58897  0.92272  1.0000
  H   H20       1.0  0.09183  0.41103  0.42272  1.0000
  H   H21       1.0  0.05378  0.83064  0.07853  1.0000
  H   H22       1.0  0.19622  0.16936  0.57853  1.0000
  H   H23       1.0  0.30378  0.66936  0.92147  1.0000
  H   H24       1.0  0.44622  0.33064  0.42147  1.0000
  H   H25       1.0  0.20714  0.74810  0.09152  1.0000
  H   H26       1.0  0.04286  0.25190  0.59152  1.0000
  H   H27       1.0  0.45714  0.75190  0.90848  1.0000
  H   H28       1.0  0.29286  0.24810  0.40848  1.0000
  H   H29       1.0  0.26299  0.70282  0.23231  1.0000
  H   H30       1.0  0.48701  0.29718  0.73231  1.0000
  H   H31       1.0  0.01298  0.79718  0.76769  1.0000
  H   H32       1.0  0.23702  0.20282  0.26769  1.0000
  H   H33       1.0  0.16361  0.73832  0.35349  1.0000
  H   H34       1.0  0.08639  0.26168  0.85349  1.0000
  H   H35       1.0  0.41360  0.76168  0.64651  1.0000
  H   H36       1.0  0.33639  0.23832  0.14651  1.0000
  H   H37       1.0  0.00808  0.59081  0.36716  1.0000
  H   H38       1.0  0.24192  0.40919  0.86716  1.0000
  H   H39       1.0  0.25808  0.90919  0.63284  1.0000
  H   H40       1.0  0.49192  0.09081  0.13284  1.0000
  H   H41       1.0  0.43953  0.56099  0.44786  1.0000
  H   H42       1.0  0.31046  0.43901  0.94786  1.0000
  H   H43       1.0  0.18954  0.93901  0.55214  1.0000
  H   H44       1.0  0.06046  0.06099  0.05214  1.0000
  C   C1        1.0  0.29660  0.95110  0.29670  1.0000
  C   C2        1.0  0.45340  0.04890  0.79670  1.0000
  C   C3        1.0  0.04660  0.54890  0.70330  1.0000
  C   C4        1.0  0.20340  0.45110  0.20330  1.0000
  C   C5        1.0  0.25060  0.99300  0.22390  1.0000
  C   C6        1.0  0.49940  0.00700  0.72390  1.0000
  C   C7        1.0  0.00060  0.50700  0.77610  1.0000
  C   C8        1.0  0.24940  0.49300  0.27610  1.0000
  C   C9        1.0  0.29305  0.97790  0.14120  1.0000
  C   C10       1.0  0.45695  0.02210  0.64120  1.0000
  C   C11       1.0  0.04305  0.52210  0.85880  1.0000
  C   C12       1.0  0.20695  0.47790  0.35880  1.0000
  C   C13       1.0  0.37960  0.92250  0.13280  1.0000
  C   C14       1.0  0.37040  0.07750  0.63280  1.0000
  C   C15       1.0  0.12960  0.57750  0.86720  1.0000
  C   C16       1.0  0.12040  0.42250  0.36720  1.0000
  C   C17       1.0  0.42305  0.88440  0.20890  1.0000
  C   C18       1.0  0.32695  0.11560  0.70890  1.0000
  C   C19       1.0  0.17305  0.61560  0.79110  1.0000
  C   C20       1.0  0.07695  0.38440  0.29110  1.0000
  C   C21       1.0  0.02005  0.82980  0.20940  1.0000
  C   C22       1.0  0.22995  0.17020  0.70940  1.0000
  C   C23       1.0  0.27005  0.67020  0.79060  1.0000
  C   C24       1.0  0.47995  0.32980  0.29060  1.0000
  C   C25       1.0  0.07690  0.81080  0.13390  1.0000
  C   C26       1.0  0.17310  0.18920  0.63390  1.0000
  C   C27       1.0  0.32690  0.68920  0.86610  1.0000
  C   C28       1.0  0.42310  0.31080  0.36610  1.0000
  C   C29       1.0  0.16845  0.76220  0.14160  1.0000
  C   C30       1.0  0.08155  0.23780  0.64160  1.0000
  C   C31       1.0  0.41845  0.73780  0.85840  1.0000
  C   C32       1.0  0.33155  0.26220  0.35840  1.0000
  C   C33       1.0  0.20135  0.73490  0.22510  1.0000
  C   C34       1.0  0.04865  0.26510  0.72510  1.0000
  C   C35       1.0  0.45135  0.76510  0.77490  1.0000
  C   C36       1.0  0.29865  0.23490  0.27490  1.0000
  C   C37       1.0  0.14105  0.75620  0.29740  1.0000
  C   C38       1.0  0.10895  0.24380  0.79740  1.0000
  C   C39       1.0  0.39105  0.74380  0.70260  1.0000
  C   C40       1.0  0.35895  0.25620  0.20260  1.0000
  C   C41       1.0  0.03585  0.67170  0.47810  1.0000
  C   C42       1.0  0.21415  0.32830  0.97810  1.0000
  C   C43       1.0  0.28585  0.82830  0.52190  1.0000
  C   C44       1.0  0.46415  0.17170  0.02190  1.0000
  C   C45       1.0  0.46735  0.61500  0.41600  1.0000
  C   C46       1.0  0.28265  0.38500  0.91600  1.0000
  C   C47       1.0  0.21735  0.88500  0.58400  1.0000
  C   C48       1.0  0.03265  0.11500  0.08400  1.0000
  N   N1        1.0  0.38055  0.89799  0.28958  1.0000
  N   N2        1.0  0.36945  0.10201  0.78958  1.0000
  N   N3        1.0  0.13055  0.60201  0.71042  1.0000
  N   N4        1.0  0.11945  0.39799  0.21042  1.0000
  N   N5        1.0  0.05110  0.80167  0.29040  1.0000
  N   N6        1.0  0.19890  0.19833  0.79040  1.0000
  N   N7        1.0  0.30110  0.69833  0.70960  1.0000
  N   N8        1.0  0.44890  0.30167  0.20960  1.0000
  Cl  Cl1       1.0  0.05180  0.06803  0.40093  1.0000
  Cl  Cl2       1.0  0.19819  0.93197  0.90093  1.0000
  Cl  Cl3       1.0  0.30180  0.43197  0.59907  1.0000
  Cl  Cl4       1.0  0.44819  0.56803  0.09907  1.0000
  O   O1        1.0  0.06070  0.96934  0.42558  1.0000
  O   O2        1.0  0.18930  0.03066  0.92558  1.0000
  O   O3        1.0  0.31070  0.53066  0.57442  1.0000
  O   O4        1.0  0.43930  0.46934  0.07442  1.0000
  O   O5        1.0  0.14725  0.11090  0.42100  1.0000
  O   O6        1.0  0.10275  0.88910  0.92100  1.0000
  O   O7        1.0  0.39725  0.38910  0.57900  1.0000
  O   O8        1.0  0.35275  0.61090  0.07900  1.0000
  O   O9        1.0  0.47370  0.10970  0.45050  1.0000
  O   O10       1.0  0.27630  0.89030  0.95050  1.0000
  O   O11       1.0  0.22370  0.39030  0.54950  1.0000
  O   O12       1.0  0.02630  0.60970  0.04950  1.0000
  O   O13       1.0  0.03135  0.07610  0.30832  1.0000
  O   O14       1.0  0.21865  0.92390  0.80832  1.0000
  O   O15       1.0  0.28135  0.42390  0.69168  1.0000
  O   O16       1.0  0.46865  0.57610  0.19168  1.0000
  O   O17       1.0  0.02760  0.76154  0.47987  1.0000
  O   O18       1.0  0.22240  0.23846  0.97987  1.0000
  O   O19       1.0  0.27760  0.73846  0.52013  1.0000
  O   O20       1.0  0.47240  0.26154  0.02013  1.0000
  O   O21       1.0  0.09800  0.62519  0.52403  1.0000
  O   O22       1.0  0.15200  0.37481  0.02403  1.0000
  O   O23       1.0  0.34800  0.87481  0.47597  1.0000
  O   O24       1.0  0.40200  0.12519  0.97597  1.0000
  O   O25       1.0  0.38560  0.66994  0.38130  1.0000
  O   O26       1.0  0.36440  0.33006  0.88130  1.0000
  O   O27       1.0  0.13560  0.83006  0.61870  1.0000
  O   O28       1.0  0.11440  0.16994  0.11870  1.0000
  Cu  Cu5       1.0  0.95155  0.83256  0.38770  1.0000
  Cu  Cu6       1.0  0.79844  0.16744  0.88770  1.0000
  Cu  Cu7       1.0  0.70155  0.66744  0.61230  1.0000
  Cu  Cu8       1.0  0.54844  0.33256  0.11230  1.0000
  H   H45       1.0  0.84800  0.67100  0.42000  1.0000
  H   H46       1.0  0.90200  0.32900  0.92000  1.0000
  H   H47       1.0  0.59800  0.82900  0.58000  1.0000
  H   H48       1.0  0.65200  0.17100  0.08000  1.0000
  H   H49       1.0  0.76796  0.96036  0.35253  1.0000
  H   H50       1.0  0.98204  0.03964  0.85253  1.0000
  H   H51       1.0  0.51796  0.53964  0.64747  1.0000
  H   H52       1.0  0.73204  0.46036  0.14747  1.0000
  H   H53       1.0  0.69248  0.03049  0.23046  1.0000
  H   H54       1.0  0.55752  0.96951  0.73046  1.0000
  H   H55       1.0  0.94248  0.46951  0.76954  1.0000
  H   H56       1.0  0.80752  0.53049  0.26954  1.0000
  H   H57       1.0  0.76332  0.00500  0.09116  1.0000
  H   H58       1.0  0.98667  0.99500  0.59116  1.0000
  H   H59       1.0  0.51332  0.49500  0.90884  1.0000
  H   H60       1.0  0.73667  0.50500  0.40884  1.0000
  H   H61       1.0  0.90817  0.91103  0.07728  1.0000
  H   H62       1.0  0.84183  0.08897  0.57728  1.0000
  H   H63       1.0  0.65817  0.58897  0.92272  1.0000
  H   H64       1.0  0.59183  0.41103  0.42272  1.0000
  H   H65       1.0  0.55378  0.83064  0.07853  1.0000
  H   H66       1.0  0.69622  0.16936  0.57853  1.0000
  H   H67       1.0  0.80378  0.66936  0.92147  1.0000
  H   H68       1.0  0.94622  0.33064  0.42147  1.0000
  H   H69       1.0  0.70714  0.74810  0.09152  1.0000
  H   H70       1.0  0.54286  0.25190  0.59152  1.0000
  H   H71       1.0  0.95714  0.75190  0.90848  1.0000
  H   H72       1.0  0.79286  0.24810  0.40848  1.0000
  H   H73       1.0  0.76298  0.70282  0.23231  1.0000
  H   H74       1.0  0.98701  0.29718  0.73231  1.0000
  H   H75       1.0  0.51299  0.79718  0.76769  1.0000
  H   H76       1.0  0.73701  0.20282  0.26769  1.0000
  H   H77       1.0  0.66360  0.73832  0.35349  1.0000
  H   H78       1.0  0.58639  0.26168  0.85349  1.0000
  H   H79       1.0  0.91360  0.76168  0.64651  1.0000
  H   H80       1.0  0.83639  0.23832  0.14651  1.0000
  H   H81       1.0  0.50808  0.59081  0.36716  1.0000
  H   H82       1.0  0.74192  0.40919  0.86716  1.0000
  H   H83       1.0  0.75808  0.90919  0.63284  1.0000
  H   H84       1.0  0.99192  0.09081  0.13284  1.0000
  H   H85       1.0  0.93953  0.56099  0.44786  1.0000
  H   H86       1.0  0.81046  0.43901  0.94786  1.0000
  H   H87       1.0  0.68953  0.93901  0.55214  1.0000
  H   H88       1.0  0.56046  0.06099  0.05214  1.0000
  C   C49       1.0  0.79660  0.95110  0.29670  1.0000
  C   C50       1.0  0.95340  0.04890  0.79670  1.0000
  C   C51       1.0  0.54660  0.54890  0.70330  1.0000
  C   C52       1.0  0.70340  0.45110  0.20330  1.0000
  C   C53       1.0  0.75060  0.99300  0.22390  1.0000
  C   C54       1.0  0.99940  0.00700  0.72390  1.0000
  C   C55       1.0  0.50060  0.50700  0.77610  1.0000
  C   C56       1.0  0.74940  0.49300  0.27610  1.0000
  C   C57       1.0  0.79305  0.97790  0.14120  1.0000
  C   C58       1.0  0.95695  0.02210  0.64120  1.0000
  C   C59       1.0  0.54305  0.52210  0.85880  1.0000
  C   C60       1.0  0.70695  0.47790  0.35880  1.0000
  C   C61       1.0  0.87960  0.92250  0.13280  1.0000
  C   C62       1.0  0.87040  0.07750  0.63280  1.0000
  C   C63       1.0  0.62960  0.57750  0.86720  1.0000
  C   C64       1.0  0.62040  0.42250  0.36720  1.0000
  C   C65       1.0  0.92305  0.88440  0.20890  1.0000
  C   C66       1.0  0.82695  0.11560  0.70890  1.0000
  C   C67       1.0  0.67305  0.61560  0.79110  1.0000
  C   C68       1.0  0.57695  0.38440  0.29110  1.0000
  C   C69       1.0  0.52005  0.82980  0.20940  1.0000
  C   C70       1.0  0.72995  0.17020  0.70940  1.0000
  C   C71       1.0  0.77005  0.67020  0.79060  1.0000
  C   C72       1.0  0.97995  0.32980  0.29060  1.0000
  C   C73       1.0  0.57690  0.81080  0.13390  1.0000
  C   C74       1.0  0.67310  0.18920  0.63390  1.0000
  C   C75       1.0  0.82690  0.68920  0.86610  1.0000
  C   C76       1.0  0.92310  0.31080  0.36610  1.0000
  C   C77       1.0  0.66845  0.76220  0.14160  1.0000
  C   C78       1.0  0.58155  0.23780  0.64160  1.0000
  C   C79       1.0  0.91845  0.73780  0.85840  1.0000
  C   C80       1.0  0.83155  0.26220  0.35840  1.0000
  C   C81       1.0  0.70135  0.73490  0.22510  1.0000
  C   C82       1.0  0.54865  0.26510  0.72510  1.0000
  C   C83       1.0  0.95135  0.76510  0.77490  1.0000
  C   C84       1.0  0.79865  0.23490  0.27490  1.0000
  C   C85       1.0  0.64105  0.75620  0.29740  1.0000
  C   C86       1.0  0.60895  0.24380  0.79740  1.0000
  C   C87       1.0  0.89105  0.74380  0.70260  1.0000
  C   C88       1.0  0.85895  0.25620  0.20260  1.0000
  C   C89       1.0  0.53585  0.67170  0.47810  1.0000
  C   C90       1.0  0.71415  0.32830  0.97810  1.0000
  C   C91       1.0  0.78585  0.82830  0.52190  1.0000
  C   C92       1.0  0.96415  0.17170  0.02190  1.0000
  C   C93       1.0  0.96735  0.61500  0.41600  1.0000
  C   C94       1.0  0.78265  0.38500  0.91600  1.0000
  C   C95       1.0  0.71735  0.88500  0.58400  1.0000
  C   C96       1.0  0.53265  0.11500  0.08400  1.0000
  N   N9        1.0  0.88055  0.89799  0.28958  1.0000
  N   N10       1.0  0.86945  0.10201  0.78958  1.0000
  N   N11       1.0  0.63055  0.60201  0.71042  1.0000
  N   N12       1.0  0.61945  0.39799  0.21042  1.0000
  N   N13       1.0  0.55110  0.80167  0.29040  1.0000
  N   N14       1.0  0.69890  0.19833  0.79040  1.0000
  N   N15       1.0  0.80110  0.69833  0.70960  1.0000
  N   N16       1.0  0.94890  0.30167  0.20960  1.0000
  Cl  Cl5       1.0  0.55180  0.06803  0.40093  1.0000
  Cl  Cl6       1.0  0.69819  0.93197  0.90093  1.0000
  Cl  Cl7       1.0  0.80180  0.43197  0.59907  1.0000
  Cl  Cl8       1.0  0.94819  0.56803  0.09907  1.0000
  O   O29       1.0  0.56070  0.96934  0.42558  1.0000
  O   O30       1.0  0.68930  0.03066  0.92558  1.0000
  O   O31       1.0  0.81070  0.53066  0.57442  1.0000
  O   O32       1.0  0.93930  0.46934  0.07442  1.0000
  O   O33       1.0  0.64725  0.11090  0.42100  1.0000
  O   O34       1.0  0.60275  0.88910  0.92100  1.0000
  O   O35       1.0  0.89725  0.38910  0.57900  1.0000
  O   O36       1.0  0.85275  0.61090  0.07900  1.0000
  O   O37       1.0  0.97370  0.10970  0.45050  1.0000
  O   O38       1.0  0.77630  0.89030  0.95050  1.0000
  O   O39       1.0  0.72370  0.39030  0.54950  1.0000
  O   O40       1.0  0.52630  0.60970  0.04950  1.0000
  O   O41       1.0  0.53135  0.07610  0.30832  1.0000
  O   O42       1.0  0.71865  0.92390  0.80832  1.0000
  O   O43       1.0  0.78135  0.42390  0.69168  1.0000
  O   O44       1.0  0.96865  0.57610  0.19168  1.0000
  O   O45       1.0  0.52760  0.76154  0.47987  1.0000
  O   O46       1.0  0.72240  0.23846  0.97987  1.0000
  O   O47       1.0  0.77760  0.73846  0.52013  1.0000
  O   O48       1.0  0.97240  0.26154  0.02013  1.0000
  O   O49       1.0  0.59800  0.62519  0.52403  1.0000
  O   O50       1.0  0.65200  0.37481  0.02403  1.0000
  O   O51       1.0  0.84800  0.87481  0.47597  1.0000
  O   O52       1.0  0.90200  0.12519  0.97597  1.0000
  O   O53       1.0  0.88560  0.66994  0.38130  1.0000
  O   O54       1.0  0.86440  0.33006  0.88130  1.0000
  O   O55       1.0  0.63560  0.83006  0.61870  1.0000
  O   O56       1.0  0.61440  0.16994  0.11870  1.0000
