data_image0
_chemical_formula_structural       Tb16H200C256S16N24O108
_chemical_formula_sum              "Tb16 H200 C256 S16 N24 O108"
_cell_length_a       13.698
_cell_length_b       13.313
_cell_length_c       41.992
_cell_angle_alpha    90
_cell_angle_beta     94.53
_cell_angle_gamma    90

_space_group_name_H-M_alt    "P 1"
_space_group_IT_number       1

loop_
  _space_group_symop_operation_xyz
  'x, y, z'

loop_
  _atom_site_type_symbol
  _atom_site_label
  _atom_site_symmetry_multiplicity
  _atom_site_fract_x
  _atom_site_fract_y
  _atom_site_fract_z
  _atom_site_occupancy
  Tb  Tb1       1.0  0.80793  0.12020  0.10321  1.0000
  Tb  Tb2       1.0  0.69207  0.62020  0.39679  1.0000
  Tb  Tb3       1.0  0.19207  0.87980  0.89679  1.0000
  Tb  Tb4       1.0  0.30793  0.37980  0.60321  1.0000
  Tb  Tb5       1.0  0.84041  0.34475  0.15905  1.0000
  Tb  Tb6       1.0  0.65959  0.84475  0.34095  1.0000
  Tb  Tb7       1.0  0.15959  0.65525  0.84095  1.0000
  Tb  Tb8       1.0  0.34041  0.15525  0.65905  1.0000
  Tb  Tb9       1.0  0.57922  0.26457  0.12947  1.0000
  Tb  Tb10      1.0  0.92078  0.76457  0.37053  1.0000
  Tb  Tb11      1.0  0.42078  0.73543  0.87053  1.0000
  Tb  Tb12      1.0  0.07922  0.23543  0.62947  1.0000
  Tb  Tb13      1.0  0.74959  0.39015  0.07095  1.0000
  Tb  Tb14      1.0  0.75041  0.89015  0.42905  1.0000
  Tb  Tb15      1.0  0.25041  0.60985  0.92905  1.0000
  Tb  Tb16      1.0  0.24959  0.10985  0.57095  1.0000
  H   H1        1.0  0.73770  0.15720  0.16400  1.0000
  H   H2        1.0  0.76230  0.65720  0.33600  1.0000
  H   H3        1.0  0.26230  0.84280  0.83600  1.0000
  H   H4        1.0  0.23770  0.34280  0.66400  1.0000
  H   H5        1.0  0.63350  0.20040  0.06690  1.0000
  H   H6        1.0  0.86650  0.70040  0.43310  1.0000
  H   H7        1.0  0.36650  0.79960  0.93310  1.0000
  H   H8        1.0  0.13350  0.29960  0.56690  1.0000
  H   H9        1.0  0.67730  0.46080  0.12930  1.0000
  H   H10       1.0  0.82270  0.96080  0.37070  1.0000
  H   H11       1.0  0.32270  0.53920  0.87070  1.0000
  H   H12       1.0  0.17730  0.03920  0.62930  1.0000
  H   H13       1.0  0.92740  0.30230  0.09740  1.0000
  H   H14       1.0  0.57260  0.80230  0.40260  1.0000
  H   H15       1.0  0.07260  0.69770  0.90260  1.0000
  H   H16       1.0  0.42740  0.19770  0.59740  1.0000
  H   H17       1.0  0.76530  0.16580  0.03630  1.0000
  H   H18       1.0  0.73470  0.66580  0.46370  1.0000
  H   H19       1.0  0.23470  0.83420  0.96370  1.0000
  H   H20       1.0  0.26530  0.33420  0.53630  1.0000
  H   H21       1.0  0.85580  0.10560  0.03770  1.0000
  H   H22       1.0  0.64420  0.60560  0.46230  1.0000
  H   H23       1.0  0.14420  0.89440  0.96230  1.0000
  H   H24       1.0  0.35580  0.39440  0.53770  1.0000
  H   H25       1.0  0.38360  0.22640  0.15110  1.0000
  H   H26       1.0  0.11640  0.72640  0.34890  1.0000
  H   H27       1.0  0.61640  0.77360  0.84890  1.0000
  H   H28       1.0  0.88360  0.27360  0.65110  1.0000
  H   H29       1.0  0.39240  0.33660  0.15080  1.0000
  H   H30       1.0  0.10760  0.83660  0.34920  1.0000
  H   H31       1.0  0.60760  0.66340  0.84920  1.0000
  H   H32       1.0  0.89240  0.16340  0.65080  1.0000
  H   H33       1.0  0.96470  0.48270  0.19990  1.0000
  H   H34       1.0  0.53530  0.98270  0.30010  1.0000
  H   H35       1.0  0.03530  0.51730  0.80010  1.0000
  H   H36       1.0  0.46470  0.01730  0.69990  1.0000
  H   H37       1.0  0.94740  0.39700  0.22090  1.0000
  H   H38       1.0  0.55260  0.89700  0.27910  1.0000
  H   H39       1.0  0.05260  0.60300  0.77910  1.0000
  H   H40       1.0  0.44740  0.10300  0.72090  1.0000
  H   H41       1.0  0.86140  0.72340  0.08280  1.0000
  H   H42       1.0  0.63860  0.22340  0.41720  1.0000
  H   H43       1.0  0.13860  0.27660  0.91720  1.0000
  H   H44       1.0  0.36140  0.77660  0.58280  1.0000
  H   H45       1.0  0.03690  0.60990  0.15560  1.0000
  H   H46       1.0  0.46310  0.10990  0.34440  1.0000
  H   H47       1.0  0.96310  0.39010  0.84440  1.0000
  H   H48       1.0  0.53690  0.89010  0.65560  1.0000
  H   H49       1.0  0.13480  0.75060  0.15480  1.0000
  H   H50       1.0  0.36520  0.25060  0.34520  1.0000
  H   H51       1.0  0.86520  0.24940  0.84520  1.0000
  H   H52       1.0  0.63480  0.74940  0.65480  1.0000
  H   H53       1.0  0.10470  0.86800  0.11500  1.0000
  H   H54       1.0  0.39530  0.36800  0.38500  1.0000
  H   H55       1.0  0.89530  0.13200  0.88500  1.0000
  H   H56       1.0  0.60470  0.63200  0.61500  1.0000
  H   H57       1.0  0.71490  0.55670  0.22700  1.0000
  H   H58       1.0  0.78510  0.05670  0.27300  1.0000
  H   H59       1.0  0.28510  0.44330  0.77300  1.0000
  H   H60       1.0  0.21490  0.94330  0.72700  1.0000
  H   H61       1.0  0.46670  0.40270  0.21300  1.0000
  H   H62       1.0  0.03330  0.90270  0.28700  1.0000
  H   H63       1.0  0.53330  0.59730  0.78700  1.0000
  H   H64       1.0  0.96670  0.09730  0.71300  1.0000
  H   H65       1.0  0.38590  0.53100  0.24180  1.0000
  H   H66       1.0  0.11410  0.03100  0.25820  1.0000
  H   H67       1.0  0.61410  0.46900  0.75820  1.0000
  H   H68       1.0  0.88590  0.96900  0.74180  1.0000
  H   H69       1.0  0.47920  0.65380  0.26660  1.0000
  H   H70       1.0  0.02080  0.15380  0.23340  1.0000
  H   H71       1.0  0.52080  0.34620  0.73340  1.0000
  H   H72       1.0  0.97920  0.84620  0.76660  1.0000
  H   H73       1.0  0.06010  0.98880  0.15920  1.0000
  H   H74       1.0  0.43990  0.48880  0.34080  1.0000
  H   H75       1.0  0.93990  0.01120  0.84080  1.0000
  H   H76       1.0  0.56010  0.51120  0.65920  1.0000
  H   H77       1.0  0.18950  0.91160  0.18510  1.0000
  H   H78       1.0  0.31050  0.41160  0.31490  1.0000
  H   H79       1.0  0.81050  0.08840  0.81490  1.0000
  H   H80       1.0  0.68950  0.58840  0.68510  1.0000
  H   H81       1.0  0.30310  0.00150  0.21710  1.0000
  H   H82       1.0  0.19690  0.50150  0.28290  1.0000
  H   H83       1.0  0.69690  0.99850  0.78290  1.0000
  H   H84       1.0  0.80310  0.49850  0.71710  1.0000
  H   H85       1.0  0.15810  0.25630  0.19290  1.0000
  H   H86       1.0  0.34190  0.75630  0.30710  1.0000
  H   H87       1.0  0.84190  0.74370  0.80710  1.0000
  H   H88       1.0  0.65810  0.24370  0.69290  1.0000
  H   H89       1.0  0.25330  0.72800  0.05170  1.0000
  H   H90       1.0  0.24670  0.22800  0.44830  1.0000
  H   H91       1.0  0.74670  0.27200  0.94830  1.0000
  H   H92       1.0  0.75330  0.77200  0.55170  1.0000
  H   H93       1.0  0.24690  0.62930  0.09740  1.0000
  H   H94       1.0  0.25310  0.12930  0.40260  1.0000
  H   H95       1.0  0.75310  0.37070  0.90260  1.0000
  H   H96       1.0  0.74690  0.87070  0.59740  1.0000
  H   H97       1.0  0.36010  0.49840  0.10630  1.0000
  H   H98       1.0  0.13990  0.99840  0.39370  1.0000
  H   H99       1.0  0.63990  0.50160  0.89370  1.0000
  H   H100      1.0  0.86010  0.00160  0.60630  1.0000
  H   H101      1.0  0.48650  0.57060  0.02630  1.0000
  H   H102      1.0  0.01350  0.07060  0.47370  1.0000
  H   H103      1.0  0.51350  0.42940  0.97370  1.0000
  H   H104      1.0  0.98650  0.92940  0.52630  1.0000
  H   H105      1.0  0.87380  0.03070  0.17860  1.0000
  H   H106      1.0  0.62620  0.53070  0.32140  1.0000
  H   H107      1.0  0.12620  0.96930  0.82140  1.0000
  H   H108      1.0  0.37380  0.46930  0.67860  1.0000
  H   H109      1.0  0.87070  0.89230  0.21250  1.0000
  H   H110      1.0  0.62930  0.39230  0.28750  1.0000
  H   H111      1.0  0.12930  0.10770  0.78750  1.0000
  H   H112      1.0  0.37070  0.60770  0.71250  1.0000
  H   H113      1.0  0.78250  0.75400  0.19630  1.0000
  H   H114      1.0  0.71750  0.25400  0.30370  1.0000
  H   H115      1.0  0.21750  0.24600  0.80370  1.0000
  H   H116      1.0  0.28250  0.74600  0.69630  1.0000
  H   H117      1.0  0.66320  0.66930  0.15450  1.0000
  H   H118      1.0  0.83680  0.16930  0.34550  1.0000
  H   H119      1.0  0.33680  0.33070  0.84550  1.0000
  H   H120      1.0  0.16320  0.83070  0.65450  1.0000
  H   H121      1.0  0.58300  0.67540  0.10650  1.0000
  H   H122      1.0  0.91700  0.17540  0.39350  1.0000
  H   H123      1.0  0.41700  0.32460  0.89350  1.0000
  H   H124      1.0  0.08300  0.82460  0.60650  1.0000
  H   H125      1.0  0.52920  0.77250  0.05480  1.0000
  H   H126      1.0  0.97080  0.27250  0.44520  1.0000
  H   H127      1.0  0.47080  0.22750  0.94520  1.0000
  H   H128      1.0  0.02920  0.72750  0.55480  1.0000
  H   H129      1.0  0.54320  0.91450  0.02490  1.0000
  H   H130      1.0  0.95680  0.41450  0.47510  1.0000
  H   H131      1.0  0.45680  0.08550  0.97510  1.0000
  H   H132      1.0  0.04320  0.58550  0.52490  1.0000
  H   H133      1.0  0.64240  0.04370  0.04450  1.0000
  H   H134      1.0  0.85760  0.54370  0.45550  1.0000
  H   H135      1.0  0.35760  0.95630  0.95550  1.0000
  H   H136      1.0  0.14240  0.45630  0.54450  1.0000
  H   H137      1.0  0.62600  0.12870  0.19660  1.0000
  H   H138      1.0  0.87400  0.62870  0.30340  1.0000
  H   H139      1.0  0.37400  0.87130  0.80340  1.0000
  H   H140      1.0  0.12600  0.37130  0.69660  1.0000
  H   H141      1.0  0.60180  0.97810  0.22190  1.0000
  H   H142      1.0  0.89820  0.47810  0.27810  1.0000
  H   H143      1.0  0.39820  0.02190  0.77810  1.0000
  H   H144      1.0  0.10180  0.52190  0.72190  1.0000
  H   H145      1.0  0.49780  0.85820  0.19790  1.0000
  H   H146      1.0  0.00220  0.35820  0.30210  1.0000
  H   H147      1.0  0.50220  0.14180  0.80210  1.0000
  H   H148      1.0  0.99780  0.64180  0.69790  1.0000
  H   H149      1.0  0.38170  0.81030  0.15150  1.0000
  H   H150      1.0  0.11830  0.31030  0.34850  1.0000
  H   H151      1.0  0.61830  0.18970  0.84850  1.0000
  H   H152      1.0  0.88170  0.68970  0.65150  1.0000
  H   H153      1.0  0.31860  0.83960  0.10060  1.0000
  H   H154      1.0  0.18140  0.33960  0.39940  1.0000
  H   H155      1.0  0.68140  0.16040  0.89940  1.0000
  H   H156      1.0  0.81860  0.66040  0.60060  1.0000
  H   H157      1.0  0.29590  0.96170  0.05300  1.0000
  H   H158      1.0  0.20410  0.46170  0.44700  1.0000
  H   H159      1.0  0.70410  0.03830  0.94700  1.0000
  H   H160      1.0  0.79590  0.53830  0.55300  1.0000
  H   H161      1.0  0.33180  0.11240  0.03060  1.0000
  H   H162      1.0  0.16820  0.61240  0.46940  1.0000
  H   H163      1.0  0.66820  0.88760  0.96940  1.0000
  H   H164      1.0  0.83180  0.38760  0.53060  1.0000
  H   H165      1.0  0.44410  0.21840  0.05750  1.0000
  H   H166      1.0  0.05590  0.71840  0.44250  1.0000
  H   H167      1.0  0.55590  0.78160  0.94250  1.0000
  H   H168      1.0  0.94410  0.28160  0.55750  1.0000
  H   H169      1.0  0.96840  0.25870  0.05710  1.0000
  H   H170      1.0  0.53160  0.75870  0.44290  1.0000
  H   H171      1.0  0.03160  0.74130  0.94290  1.0000
  H   H172      1.0  0.46840  0.24130  0.55710  1.0000
  H   H173      1.0  0.06930  0.21500  0.01920  1.0000
  H   H174      1.0  0.43070  0.71500  0.48080  1.0000
  H   H175      1.0  0.93070  0.78500  0.98080  1.0000
  H   H176      1.0  0.56930  0.28500  0.51920  1.0000
  H   H177      1.0  0.05740  0.29320  0.97100  1.0000
  H   H178      1.0  0.44260  0.79320  0.52900  1.0000
  H   H179      1.0  0.94260  0.70680  0.02900  1.0000
  H   H180      1.0  0.55740  0.20680  0.47100  1.0000
  H   H181      1.0  0.97750  0.43080  0.93480  1.0000
  H   H182      1.0  0.52250  0.93080  0.56520  1.0000
  H   H183      1.0  0.02250  0.56920  0.06520  1.0000
  H   H184      1.0  0.47750  0.06920  0.43480  1.0000
  H   H185      1.0  0.87170  0.55890  0.92920  1.0000
  H   H186      1.0  0.62830  0.05890  0.57080  1.0000
  H   H187      1.0  0.12830  0.44110  0.07080  1.0000
  H   H188      1.0  0.37170  0.94110  0.42920  1.0000
  H   H189      1.0  0.73850  0.66750  0.95090  1.0000
  H   H190      1.0  0.76150  0.16750  0.54910  1.0000
  H   H191      1.0  0.26150  0.33250  0.04910  1.0000
  H   H192      1.0  0.23850  0.83250  0.45090  1.0000
  H   H193      1.0  0.65370  0.71590  0.99380  1.0000
  H   H194      1.0  0.84630  0.21590  0.50620  1.0000
  H   H195      1.0  0.34630  0.28410  0.00620  1.0000
  H   H196      1.0  0.15370  0.78410  0.49380  1.0000
  H   H197      1.0  0.66540  0.61620  0.03960  1.0000
  H   H198      1.0  0.83460  0.11620  0.46040  1.0000
  H   H199      1.0  0.33460  0.38380  0.96040  1.0000
  H   H200      1.0  0.16540  0.88380  0.53960  1.0000
  C   C1        1.0  0.97600  0.81130  0.09620  1.0000
  C   C2        1.0  0.52400  0.31130  0.40380  1.0000
  C   C3        1.0  0.02400  0.18870  0.90380  1.0000
  C   C4        1.0  0.47600  0.68870  0.59620  1.0000
  C   C5        1.0  0.91740  0.72780  0.09670  1.0000
  C   C6        1.0  0.58260  0.22780  0.40330  1.0000
  C   C7        1.0  0.08260  0.27220  0.90330  1.0000
  C   C8        1.0  0.41740  0.77220  0.59670  1.0000
  C   C9        1.0  0.94150  0.64800  0.11840  1.0000
  C   C10       1.0  0.55850  0.14800  0.38160  1.0000
  C   C11       1.0  0.05850  0.35200  0.88160  1.0000
  C   C12       1.0  0.44150  0.85200  0.61840  1.0000
  C   C13       1.0  0.02260  0.65950  0.14040  1.0000
  C   C14       1.0  0.47740  0.15950  0.35960  1.0000
  C   C15       1.0  0.97740  0.34050  0.85960  1.0000
  C   C16       1.0  0.52260  0.84050  0.64040  1.0000
  C   C17       1.0  0.08160  0.74310  0.13980  1.0000
  C   C18       1.0  0.41840  0.24310  0.36020  1.0000
  C   C19       1.0  0.91840  0.25690  0.86020  1.0000
  C   C20       1.0  0.58160  0.75690  0.63980  1.0000
  C   C21       1.0  0.06100  0.81520  0.11690  1.0000
  C   C22       1.0  0.43900  0.31520  0.38310  1.0000
  C   C23       1.0  0.93900  0.18480  0.88310  1.0000
  C   C24       1.0  0.56100  0.68480  0.61690  1.0000
  C   C25       1.0  0.88490  0.55190  0.11650  1.0000
  C   C26       1.0  0.61510  0.05190  0.38350  1.0000
  C   C27       1.0  0.11510  0.44810  0.88350  1.0000
  C   C28       1.0  0.38490  0.94810  0.61650  1.0000
  C   C29       1.0  0.60630  0.62060  0.24800  1.0000
  C   C30       1.0  0.89370  0.12060  0.25200  1.0000
  C   C31       1.0  0.39370  0.37940  0.75200  1.0000
  C   C32       1.0  0.10630  0.87940  0.74800  1.0000
  C   C33       1.0  0.64860  0.55060  0.23000  1.0000
  C   C34       1.0  0.85140  0.05060  0.27000  1.0000
  C   C35       1.0  0.35140  0.44940  0.77000  1.0000
  C   C36       1.0  0.14860  0.94940  0.73000  1.0000
  C   C37       1.0  0.59660  0.46970  0.21590  1.0000
  C   C38       1.0  0.90340  0.96970  0.28410  1.0000
  C   C39       1.0  0.40340  0.53030  0.78410  1.0000
  C   C40       1.0  0.09660  0.03030  0.71590  1.0000
  C   C41       1.0  0.50140  0.45830  0.22110  1.0000
  C   C42       1.0  0.99860  0.95830  0.27890  1.0000
  C   C43       1.0  0.49860  0.54170  0.77890  1.0000
  C   C44       1.0  0.00140  0.04170  0.72110  1.0000
  C   C45       1.0  0.45280  0.53400  0.23950  1.0000
  C   C46       1.0  0.04720  0.03400  0.26050  1.0000
  C   C47       1.0  0.54720  0.46600  0.76050  1.0000
  C   C48       1.0  0.95280  0.96600  0.73950  1.0000
  C   C49       1.0  0.50790  0.60880  0.25320  1.0000
  C   C50       1.0  0.99210  0.10880  0.24680  1.0000
  C   C51       1.0  0.49210  0.39120  0.74680  1.0000
  C   C52       1.0  0.00790  0.89120  0.75320  1.0000
  C   C53       1.0  0.64360  0.39950  0.19490  1.0000
  C   C54       1.0  0.85640  0.89950  0.30510  1.0000
  C   C55       1.0  0.35640  0.60050  0.80510  1.0000
  C   C56       1.0  0.14360  0.10050  0.69490  1.0000
  C   C57       1.0  0.01240  0.18170  0.15430  1.0000
  C   C58       1.0  0.48760  0.68170  0.34570  1.0000
  C   C59       1.0  0.98760  0.81830  0.84570  1.0000
  C   C60       1.0  0.51240  0.31830  0.65430  1.0000
  C   C61       1.0  0.09700  0.12930  0.17050  1.0000
  C   C62       1.0  0.40300  0.62930  0.32950  1.0000
  C   C63       1.0  0.90300  0.87070  0.82950  1.0000
  C   C64       1.0  0.59700  0.37070  0.67050  1.0000
  C   C65       1.0  0.10720  0.02750  0.17070  1.0000
  C   C66       1.0  0.39280  0.52750  0.32930  1.0000
  C   C67       1.0  0.89280  0.97250  0.82930  1.0000
  C   C68       1.0  0.60720  0.47250  0.67070  1.0000
  C   C69       1.0  0.18300  0.98090  0.18680  1.0000
  C   C70       1.0  0.31700  0.48090  0.31320  1.0000
  C   C71       1.0  0.81700  0.01910  0.81320  1.0000
  C   C72       1.0  0.68300  0.51910  0.68680  1.0000
  C   C73       1.0  0.25140  0.03450  0.20580  1.0000
  C   C74       1.0  0.24860  0.53450  0.29420  1.0000
  C   C75       1.0  0.74860  0.96550  0.79420  1.0000
  C   C76       1.0  0.75140  0.46550  0.70580  1.0000
  C   C77       1.0  0.24250  0.13640  0.20800  1.0000
  C   C78       1.0  0.25750  0.63640  0.29200  1.0000
  C   C79       1.0  0.75750  0.86360  0.79200  1.0000
  C   C80       1.0  0.74250  0.36360  0.70800  1.0000
  C   C81       1.0  0.16520  0.18710  0.19100  1.0000
  C   C82       1.0  0.33480  0.68710  0.30900  1.0000
  C   C83       1.0  0.83480  0.81290  0.80900  1.0000
  C   C84       1.0  0.66520  0.31290  0.69100  1.0000
  C   C85       1.0  0.37050  0.65930  0.03490  1.0000
  C   C86       1.0  0.12950  0.15930  0.46510  1.0000
  C   C87       1.0  0.62950  0.34070  0.96510  1.0000
  C   C88       1.0  0.87050  0.84070  0.53490  1.0000
  C   C89       1.0  0.29860  0.67670  0.05590  1.0000
  C   C90       1.0  0.20140  0.17670  0.44410  1.0000
  C   C91       1.0  0.70140  0.32330  0.94410  1.0000
  C   C92       1.0  0.79860  0.82330  0.55590  1.0000
  C   C93       1.0  0.29420  0.61760  0.08310  1.0000
  C   C94       1.0  0.20580  0.11760  0.41690  1.0000
  C   C95       1.0  0.70580  0.38240  0.91690  1.0000
  C   C96       1.0  0.79420  0.88240  0.58310  1.0000
  C   C97       1.0  0.36300  0.53980  0.08850  1.0000
  C   C98       1.0  0.13700  0.03980  0.41150  1.0000
  C   C99       1.0  0.63700  0.46020  0.91150  1.0000
  C   C100      1.0  0.86300  0.96020  0.58850  1.0000
  C   C101      1.0  0.43520  0.52420  0.06760  1.0000
  C   C102      1.0  0.06480  0.02420  0.43240  1.0000
  C   C103      1.0  0.56480  0.47580  0.93240  1.0000
  C   C104      1.0  0.93520  0.97580  0.56760  1.0000
  C   C105      1.0  0.43910  0.58240  0.04050  1.0000
  C   C106      1.0  0.06090  0.08240  0.45950  1.0000
  C   C107      1.0  0.56090  0.41760  0.95950  1.0000
  C   C108      1.0  0.93910  0.91760  0.54050  1.0000
  C   C109      1.0  0.51340  0.44610  0.07540  1.0000
  C   C110      1.0  0.98660  0.94610  0.42460  1.0000
  C   C111      1.0  0.48660  0.55390  0.92460  1.0000
  C   C112      1.0  0.01340  0.05390  0.57540  1.0000
  C   C113      1.0  0.83650  0.97500  0.17200  1.0000
  C   C114      1.0  0.66350  0.47500  0.32800  1.0000
  C   C115      1.0  0.16350  0.02500  0.82800  1.0000
  C   C116      1.0  0.33650  0.52500  0.67200  1.0000
  C   C117      1.0  0.83540  0.89120  0.19260  1.0000
  C   C118      1.0  0.66460  0.39120  0.30740  1.0000
  C   C119      1.0  0.16460  0.10880  0.80740  1.0000
  C   C120      1.0  0.33540  0.60880  0.69260  1.0000
  C   C121      1.0  0.78300  0.81010  0.18310  1.0000
  C   C122      1.0  0.71700  0.31010  0.31690  1.0000
  C   C123      1.0  0.21700  0.18990  0.81690  1.0000
  C   C124      1.0  0.28300  0.68990  0.68310  1.0000
  C   C125      1.0  0.72930  0.80970  0.15360  1.0000
  C   C126      1.0  0.77070  0.30970  0.34640  1.0000
  C   C127      1.0  0.27070  0.19030  0.84640  1.0000
  C   C128      1.0  0.22930  0.69030  0.65360  1.0000
  C   C129      1.0  0.66810  0.72640  0.14190  1.0000
  C   C130      1.0  0.83190  0.22640  0.35810  1.0000
  C   C131      1.0  0.33190  0.27360  0.85810  1.0000
  C   C132      1.0  0.16810  0.77360  0.64190  1.0000
  C   C133      1.0  0.61930  0.73140  0.11350  1.0000
  C   C134      1.0  0.88070  0.23140  0.38650  1.0000
  C   C135      1.0  0.38070  0.26860  0.88650  1.0000
  C   C136      1.0  0.11930  0.76860  0.61350  1.0000
  C   C137      1.0  0.61830  0.81760  0.09270  1.0000
  C   C138      1.0  0.88170  0.31760  0.40730  1.0000
  C   C139      1.0  0.38170  0.18240  0.90730  1.0000
  C   C140      1.0  0.11830  0.68240  0.59270  1.0000
  C   C141      1.0  0.56850  0.82530  0.06270  1.0000
  C   C142      1.0  0.93150  0.32530  0.43730  1.0000
  C   C143      1.0  0.43150  0.17470  0.93730  1.0000
  C   C144      1.0  0.06850  0.67470  0.56270  1.0000
  C   C145      1.0  0.57680  0.90910  0.04500  1.0000
  C   C146      1.0  0.92320  0.40910  0.45500  1.0000
  C   C147      1.0  0.42320  0.09090  0.95500  1.0000
  C   C148      1.0  0.07680  0.59090  0.54500  1.0000
  C   C149      1.0  0.63620  0.98690  0.05710  1.0000
  C   C150      1.0  0.86380  0.48690  0.44290  1.0000
  C   C151      1.0  0.36380  0.01310  0.94290  1.0000
  C   C152      1.0  0.13620  0.51310  0.55710  1.0000
  C   C153      1.0  0.67830  0.90070  0.10350  1.0000
  C   C154      1.0  0.82170  0.40070  0.39650  1.0000
  C   C155      1.0  0.32170  0.09930  0.89650  1.0000
  C   C156      1.0  0.17830  0.59930  0.60350  1.0000
  C   C157      1.0  0.73260  0.89800  0.13440  1.0000
  C   C158      1.0  0.76740  0.39800  0.36560  1.0000
  C   C159      1.0  0.26740  0.10200  0.86560  1.0000
  C   C160      1.0  0.23260  0.60200  0.63440  1.0000
  C   C161      1.0  0.58680  0.08010  0.18610  1.0000
  C   C162      1.0  0.91320  0.58010  0.31390  1.0000
  C   C163      1.0  0.41320  0.91990  0.81390  1.0000
  C   C164      1.0  0.08680  0.41990  0.68610  1.0000
  C   C165      1.0  0.57100  0.98970  0.20180  1.0000
  C   C166      1.0  0.92900  0.48970  0.29820  1.0000
  C   C167      1.0  0.42900  0.01030  0.79820  1.0000
  C   C168      1.0  0.07100  0.51030  0.70180  1.0000
  C   C169      1.0  0.51010  0.91790  0.18750  1.0000
  C   C170      1.0  0.98990  0.41790  0.31250  1.0000
  C   C171      1.0  0.48990  0.08210  0.81250  1.0000
  C   C172      1.0  0.01010  0.58210  0.68750  1.0000
  C   C173      1.0  0.46690  0.93740  0.15650  1.0000
  C   C174      1.0  0.03310  0.43740  0.34350  1.0000
  C   C175      1.0  0.53310  0.06260  0.84350  1.0000
  C   C176      1.0  0.96690  0.56260  0.65650  1.0000
  C   C177      1.0  0.39880  0.86840  0.14100  1.0000
  C   C178      1.0  0.10120  0.36840  0.35900  1.0000
  C   C179      1.0  0.60120  0.13160  0.85900  1.0000
  C   C180      1.0  0.89880  0.63160  0.64100  1.0000
  C   C181      1.0  0.35880  0.88750  0.11110  1.0000
  C   C182      1.0  0.14120  0.38750  0.38890  1.0000
  C   C183      1.0  0.64120  0.11250  0.88890  1.0000
  C   C184      1.0  0.85880  0.61250  0.61110  1.0000
  C   C185      1.0  0.37760  0.98060  0.09510  1.0000
  C   C186      1.0  0.12240  0.48060  0.40490  1.0000
  C   C187      1.0  0.62240  0.01940  0.90490  1.0000
  C   C188      1.0  0.87760  0.51940  0.59510  1.0000
  C   C189      1.0  0.33810  0.00620  0.06420  1.0000
  C   C190      1.0  0.16190  0.50620  0.43580  1.0000
  C   C191      1.0  0.66190  0.99380  0.93580  1.0000
  C   C192      1.0  0.83810  0.49380  0.56420  1.0000
  C   C193      1.0  0.36030  0.09460  0.05060  1.0000
  C   C194      1.0  0.13970  0.59460  0.44940  1.0000
  C   C195      1.0  0.63970  0.90540  0.94940  1.0000
  C   C196      1.0  0.86030  0.40540  0.55060  1.0000
  C   C197      1.0  0.42750  0.15890  0.06740  1.0000
  C   C198      1.0  0.07250  0.65890  0.43260  1.0000
  C   C199      1.0  0.57250  0.84110  0.93260  1.0000
  C   C200      1.0  0.92750  0.34110  0.56740  1.0000
  C   C201      1.0  0.44430  0.04960  0.10970  1.0000
  C   C202      1.0  0.05570  0.54960  0.39030  1.0000
  C   C203      1.0  0.55570  0.95040  0.89030  1.0000
  C   C204      1.0  0.94430  0.45040  0.60970  1.0000
  C   C205      1.0  0.48940  0.02840  0.14200  1.0000
  C   C206      1.0  0.01060  0.52840  0.35800  1.0000
  C   C207      1.0  0.51060  0.97160  0.85800  1.0000
  C   C208      1.0  0.98940  0.47160  0.64200  1.0000
  C   C209      1.0  0.96200  0.29300  0.03780  1.0000
  C   C210      1.0  0.53800  0.79300  0.46220  1.0000
  C   C211      1.0  0.03800  0.70700  0.96220  1.0000
  C   C212      1.0  0.46200  0.20700  0.53780  1.0000
  C   C213      1.0  0.02340  0.26570  0.01500  1.0000
  C   C214      1.0  0.47660  0.76570  0.48500  1.0000
  C   C215      1.0  0.97660  0.73430  0.98500  1.0000
  C   C216      1.0  0.52340  0.23430  0.51500  1.0000
  C   C217      1.0  0.01690  0.31260  0.98660  1.0000
  C   C218      1.0  0.48310  0.81260  0.51340  1.0000
  C   C219      1.0  0.98310  0.68740  0.01340  1.0000
  C   C220      1.0  0.51690  0.18740  0.48660  1.0000
  C   C221      1.0  0.94950  0.39020  0.98050  1.0000
  C   C222      1.0  0.55050  0.89020  0.51950  1.0000
  C   C223      1.0  0.05050  0.60980  0.01950  1.0000
  C   C224      1.0  0.44950  0.10980  0.48050  1.0000
  C   C225      1.0  0.93940  0.44690  0.95150  1.0000
  C   C226      1.0  0.56060  0.94690  0.54850  1.0000
  C   C227      1.0  0.06060  0.55310  0.04850  1.0000
  C   C228      1.0  0.43940  0.05310  0.45150  1.0000
  C   C229      1.0  0.87550  0.52290  0.94820  1.0000
  C   C230      1.0  0.62450  0.02290  0.55180  1.0000
  C   C231      1.0  0.12450  0.47710  0.05180  1.0000
  C   C232      1.0  0.37550  0.97710  0.44820  1.0000
  C   C233      1.0  0.81130  0.55260  0.97270  1.0000
  C   C234      1.0  0.68870  0.05260  0.52730  1.0000
  C   C235      1.0  0.18870  0.44740  0.02730  1.0000
  C   C236      1.0  0.31130  0.94740  0.47270  1.0000
  C   C237      1.0  0.74650  0.63200  0.97000  1.0000
  C   C238      1.0  0.75350  0.13200  0.53000  1.0000
  C   C239      1.0  0.25350  0.36800  0.03000  1.0000
  C   C240      1.0  0.24650  0.86800  0.47000  1.0000
  C   C241      1.0  0.69370  0.65940  0.99500  1.0000
  C   C242      1.0  0.80630  0.15940  0.50500  1.0000
  C   C243      1.0  0.30630  0.34060  0.00500  1.0000
  C   C244      1.0  0.19370  0.84060  0.49500  1.0000
  C   C245      1.0  0.70210  0.59890  0.02270  1.0000
  C   C246      1.0  0.79790  0.09890  0.47730  1.0000
  C   C247      1.0  0.29790  0.40110  0.97730  1.0000
  C   C248      1.0  0.20210  0.90110  0.52270  1.0000
  C   C249      1.0  0.81870  0.49470  0.00170  1.0000
  C   C250      1.0  0.68130  0.99470  0.49830  1.0000
  C   C251      1.0  0.18130  0.50530  0.99830  1.0000
  C   C252      1.0  0.31870  0.00530  0.50170  1.0000
  C   C253      1.0  0.88740  0.41370  0.00580  1.0000
  C   C254      1.0  0.61260  0.91370  0.49420  1.0000
  C   C255      1.0  0.11260  0.58630  0.99420  1.0000
  C   C256      1.0  0.38740  0.08630  0.50580  1.0000
  S   S1        1.0  0.94840  0.90880  0.06828  1.0000
  S   S2        1.0  0.55160  0.40880  0.43172  1.0000
  S   S3        1.0  0.05160  0.09120  0.93172  1.0000
  S   S4        1.0  0.44840  0.59120  0.56828  1.0000
  S   S5        1.0  0.66790  0.72490  0.26331  1.0000
  S   S6        1.0  0.83210  0.22490  0.23669  1.0000
  S   S7        1.0  0.33210  0.27510  0.73669  1.0000
  S   S8        1.0  0.16790  0.77510  0.76331  1.0000
  S   S9        1.0  0.33000  0.21030  0.23108  1.0000
  S   S10       1.0  0.17000  0.71030  0.26892  1.0000
  S   S11       1.0  0.67000  0.78970  0.76892  1.0000
  S   S12       1.0  0.83000  0.28970  0.73108  1.0000
  S   S13       1.0  0.37780  0.73550  0.00042  1.0000
  S   S14       1.0  0.12220  0.23550  0.49958  1.0000
  S   S15       1.0  0.62220  0.26450  0.99958  1.0000
  S   S16       1.0  0.87780  0.76450  0.50042  1.0000
  N   N1        1.0  0.78640  0.97730  0.14380  1.0000
  N   N2        1.0  0.71360  0.47730  0.35620  1.0000
  N   N3        1.0  0.21360  0.02270  0.85620  1.0000
  N   N4        1.0  0.28640  0.52270  0.64380  1.0000
  N   N5        1.0  0.68390  0.98440  0.08530  1.0000
  N   N6        1.0  0.81610  0.48440  0.41470  1.0000
  N   N7        1.0  0.31610  0.01560  0.91470  1.0000
  N   N8        1.0  0.18390  0.51560  0.58530  1.0000
  N   N9        1.0  0.54780  0.09960  0.15660  1.0000
  N   N10       1.0  0.95220  0.59960  0.34340  1.0000
  N   N11       1.0  0.45220  0.90040  0.84340  1.0000
  N   N12       1.0  0.04780  0.40040  0.65660  1.0000
  N   N13       1.0  0.46930  0.14000  0.09680  1.0000
  N   N14       1.0  0.03070  0.64000  0.40320  1.0000
  N   N15       1.0  0.53070  0.86000  0.90320  1.0000
  N   N16       1.0  0.96930  0.36000  0.59680  1.0000
  N   N17       1.0  0.89570  0.36270  0.03460  1.0000
  N   N18       1.0  0.60430  0.86270  0.46540  1.0000
  N   N19       1.0  0.10430  0.63730  0.96540  1.0000
  N   N20       1.0  0.39570  0.13730  0.53460  1.0000
  N   N21       1.0  0.76070  0.51670  0.02600  1.0000
  N   N22       1.0  0.73930  0.01670  0.47400  1.0000
  N   N23       1.0  0.23930  0.48330  0.97400  1.0000
  N   N24       1.0  0.26070  0.98330  0.52600  1.0000
  O   O1        1.0  0.91280  0.99240  0.08750  1.0000
  O   O2        1.0  0.58720  0.49240  0.41250  1.0000
  O   O3        1.0  0.08720  0.00760  0.91250  1.0000
  O   O4        1.0  0.41280  0.50760  0.58750  1.0000
  O   O5        1.0  0.04050  0.93650  0.05510  1.0000
  O   O6        1.0  0.45950  0.43650  0.44490  1.0000
  O   O7        1.0  0.95950  0.06350  0.94490  1.0000
  O   O8        1.0  0.54050  0.56350  0.55510  1.0000
  O   O9        1.0  0.87310  0.87160  0.04520  1.0000
  O   O10       1.0  0.62690  0.37160  0.45480  1.0000
  O   O11       1.0  0.12690  0.12840  0.95480  1.0000
  O   O12       1.0  0.37310  0.62840  0.54520  1.0000
  O   O13       1.0  0.82850  0.53430  0.09190  1.0000
  O   O14       1.0  0.67150  0.03430  0.40810  1.0000
  O   O15       1.0  0.17150  0.46570  0.90810  1.0000
  O   O16       1.0  0.32850  0.96570  0.59190  1.0000
  O   O17       1.0  0.89910  0.49260  0.14010  1.0000
  O   O18       1.0  0.60090  0.99260  0.35990  1.0000
  O   O19       1.0  0.10090  0.50740  0.85990  1.0000
  O   O20       1.0  0.39910  0.00740  0.64010  1.0000
  O   O21       1.0  0.65370  0.72450  0.29800  1.0000
  O   O22       1.0  0.84630  0.22450  0.20200  1.0000
  O   O23       1.0  0.34630  0.27550  0.70200  1.0000
  O   O24       1.0  0.15370  0.77550  0.79800  1.0000
  O   O25       1.0  0.62440  0.81350  0.24800  1.0000
  O   O26       1.0  0.87560  0.31350  0.25200  1.0000
  O   O27       1.0  0.37560  0.18650  0.75200  1.0000
  O   O28       1.0  0.12440  0.68650  0.74800  1.0000
  O   O29       1.0  0.77080  0.71040  0.25810  1.0000
  O   O30       1.0  0.72920  0.21040  0.24190  1.0000
  O   O31       1.0  0.22920  0.28960  0.74190  1.0000
  O   O32       1.0  0.27080  0.78960  0.75810  1.0000
  O   O33       1.0  0.73270  0.41410  0.19160  1.0000
  O   O34       1.0  0.76730  0.91410  0.30840  1.0000
  O   O35       1.0  0.26730  0.58590  0.80840  1.0000
  O   O36       1.0  0.23270  0.08590  0.69160  1.0000
  O   O37       1.0  0.59340  0.32910  0.18030  1.0000
  O   O38       1.0  0.90660  0.82910  0.31970  1.0000
  O   O39       1.0  0.40660  0.67090  0.81970  1.0000
  O   O40       1.0  0.09340  0.17090  0.68030  1.0000
  O   O41       1.0  0.99940  0.27590  0.15710  1.0000
  O   O42       1.0  0.50060  0.77590  0.34290  1.0000
  O   O43       1.0  0.00060  0.72410  0.84290  1.0000
  O   O44       1.0  0.49940  0.22410  0.65710  1.0000
  O   O45       1.0  0.95300  0.12640  0.13680  1.0000
  O   O46       1.0  0.54700  0.62640  0.36320  1.0000
  O   O47       1.0  0.04700  0.87360  0.86320  1.0000
  O   O48       1.0  0.45300  0.37360  0.63680  1.0000
  O   O49       1.0  0.27890  0.30270  0.23960  1.0000
  O   O50       1.0  0.22110  0.80270  0.26040  1.0000
  O   O51       1.0  0.72110  0.69730  0.76040  1.0000
  O   O52       1.0  0.77890  0.19730  0.73960  1.0000
  O   O53       1.0  0.40900  0.22860  0.21090  1.0000
  O   O54       1.0  0.09100  0.72860  0.28910  1.0000
  O   O55       1.0  0.59100  0.77140  0.78910  1.0000
  O   O56       1.0  0.90900  0.27140  0.71090  1.0000
  O   O57       1.0  0.36040  0.14880  0.25920  1.0000
  O   O58       1.0  0.13960  0.64880  0.24080  1.0000
  O   O59       1.0  0.63960  0.85120  0.74080  1.0000
  O   O60       1.0  0.86040  0.35120  0.75920  1.0000
  O   O61       1.0  0.29900  0.69970  0.97670  1.0000
  O   O62       1.0  0.20100  0.19970  0.52330  1.0000
  O   O63       1.0  0.70100  0.30030  0.02330  1.0000
  O   O64       1.0  0.79900  0.80030  0.47670  1.0000
  O   O65       1.0  0.47400  0.72020  0.98910  1.0000
  O   O66       1.0  0.02600  0.22020  0.51090  1.0000
  O   O67       1.0  0.52600  0.27980  0.01090  1.0000
  O   O68       1.0  0.97400  0.77980  0.48910  1.0000
  O   O69       1.0  0.35800  0.83700  0.01000  1.0000
  O   O70       1.0  0.14200  0.33700  0.49000  1.0000
  O   O71       1.0  0.64200  0.16300  0.99000  1.0000
  O   O72       1.0  0.85800  0.66300  0.51000  1.0000
  O   O73       1.0  0.59520  0.45740  0.06390  1.0000
  O   O74       1.0  0.90480  0.95740  0.43610  1.0000
  O   O75       1.0  0.40480  0.54260  0.93610  1.0000
  O   O76       1.0  0.09520  0.04260  0.56390  1.0000
  O   O77       1.0  0.49500  0.37500  0.09410  1.0000
  O   O78       1.0  0.00500  0.87500  0.40590  1.0000
  O   O79       1.0  0.50500  0.62500  0.90590  1.0000
  O   O80       1.0  0.99500  0.12500  0.59410  1.0000
  O   O81       1.0  0.73970  0.20230  0.14560  1.0000
  O   O82       1.0  0.76030  0.70230  0.35440  1.0000
  O   O83       1.0  0.26030  0.79770  0.85440  1.0000
  O   O84       1.0  0.23970  0.29770  0.64560  1.0000
  O   O85       1.0  0.67370  0.22920  0.08501  1.0000
  O   O86       1.0  0.82630  0.72920  0.41499  1.0000
  O   O87       1.0  0.32630  0.77080  0.91499  1.0000
  O   O88       1.0  0.17370  0.27080  0.58501  1.0000
  O   O89       1.0  0.70160  0.39430  0.12376  1.0000
  O   O90       1.0  0.79840  0.89430  0.37624  1.0000
  O   O91       1.0  0.29840  0.60570  0.87624  1.0000
  O   O92       1.0  0.20160  0.10570  0.62376  1.0000
  O   O93       1.0  0.85990  0.29470  0.10316  1.0000
  O   O94       1.0  0.64010  0.79470  0.39684  1.0000
  O   O95       1.0  0.14010  0.70530  0.89684  1.0000
  O   O96       1.0  0.35990  0.20530  0.60316  1.0000
  O   O97       1.0  0.81010  0.13340  0.04700  1.0000
  O   O98       1.0  0.68990  0.63340  0.45300  1.0000
  O   O99       1.0  0.18990  0.86660  0.95300  1.0000
  O   O100      1.0  0.31010  0.36660  0.54700  1.0000
  O   O101      1.0  0.41660  0.27890  0.14780  1.0000
  O   O102      1.0  0.08340  0.77890  0.35220  1.0000
  O   O103      1.0  0.58340  0.72110  0.85220  1.0000
  O   O104      1.0  0.91660  0.22110  0.64780  1.0000
  O   O105      1.0  0.93890  0.42580  0.20280  1.0000
  O   O106      1.0  0.56110  0.92580  0.29720  1.0000
  O   O107      1.0  0.06110  0.57420  0.79720  1.0000
  O   O108      1.0  0.43890  0.07420  0.70280  1.0000
