data_image0
_chemical_formula_structural       Na2H70C60O16Na2H70C60O16
_chemical_formula_sum              "Na4 H140 C120 O32"
_cell_length_a       8.8921
_cell_length_b       11.55
_cell_length_c       26.92
_cell_angle_alpha    90
_cell_angle_beta     95.899
_cell_angle_gamma    90

_space_group_name_H-M_alt    "P 1"
_space_group_IT_number       1

loop_
  _space_group_symop_operation_xyz
  'x, y, z'

loop_
  _atom_site_type_symbol
  _atom_site_label
  _atom_site_symmetry_multiplicity
  _atom_site_fract_x
  _atom_site_fract_y
  _atom_site_fract_z
  _atom_site_occupancy
  Na  Na1       1.0  0.74622  0.40067  0.24858  1.0000
  Na  Na2       1.0  0.25378  0.15067  0.75142  1.0000
  H   H1        1.0  0.17250  0.31965  0.32080  1.0000
  H   H2        1.0  0.82750  0.06965  0.67920  1.0000
  H   H3        1.0  0.13940  0.37960  0.26720  1.0000
  H   H4        1.0  0.86060  0.12960  0.73280  1.0000
  H   H5        1.0  0.08420  0.24980  0.27550  1.0000
  H   H6        1.0  0.91580  0.49980  0.72450  1.0000
  H   H7        1.0  0.30420  0.35670  0.19490  1.0000
  H   H8        1.0  0.69580  0.10670  0.80510  1.0000
  H   H9        1.0  0.38220  0.40460  0.24710  1.0000
  H   H10       1.0  0.61780  0.15460  0.75290  1.0000
  H   H11       1.0  0.41950  0.27665  0.22910  1.0000
  H   H12       1.0  0.58050  0.02665  0.77090  1.0000
  H   H13       1.0  0.59800  0.39900  0.97900  1.0000
  H   H14       1.0  0.40200  0.14900  0.02100  1.0000
  H   H15       1.0  0.53810  0.06200  0.42970  1.0000
  H   H16       1.0  0.46190  0.31200  0.57030  1.0000
  H   H17       1.0  0.88300  0.23950  0.97320  1.0000
  H   H18       1.0  0.11700  0.48950  0.02680  1.0000
  H   H19       1.0  0.91960  0.36700  0.52430  1.0000
  H   H20       1.0  0.08040  0.11700  0.47570  1.0000
  H   H21       1.0  0.76620  0.08350  0.59210  1.0000
  H   H22       1.0  0.23380  0.33350  0.40790  1.0000
  H   H23       1.0  0.96400  0.22550  0.06040  1.0000
  H   H24       1.0  0.03600  0.47550  0.93960  1.0000
  H   H25       1.0  0.67300  0.36050  0.36390  1.0000
  H   H26       1.0  0.32700  0.11050  0.63610  1.0000
  H   H27       1.0  0.69800  0.37150  0.06750  1.0000
  H   H28       1.0  0.30200  0.12150  0.93250  1.0000
  H   H29       1.0  0.62600  0.03200  0.52120  1.0000
  H   H30       1.0  0.37400  0.28200  0.47880  1.0000
  H   H31       1.0  0.74500  0.17200  0.89840  1.0000
  H   H32       1.0  0.25500  0.42200  0.10160  1.0000
  H   H33       1.0  0.83700  0.44250  0.13930  1.0000
  H   H34       1.0  0.16300  0.19250  0.86070  1.0000
  H   H35       1.0  0.82300  0.40950  0.43720  1.0000
  H   H36       1.0  0.17700  0.15950  0.56280  1.0000
  H   H37       1.0  0.07100  0.35650  0.64820  1.0000
  H   H38       1.0  0.92900  0.10650  0.35180  1.0000
  H   H39       1.0  0.10600  0.35100  0.59090  1.0000
  H   H40       1.0  0.89400  0.10100  0.40910  1.0000
  H   H41       1.0  0.40900  0.40650  0.91160  1.0000
  H   H42       1.0  0.59100  0.15650  0.08840  1.0000
  H   H43       1.0  0.55000  0.33200  0.89830  1.0000
  H   H44       1.0  0.45000  0.08200  0.10170  1.0000
  H   H45       1.0  0.43900  0.39050  0.85350  1.0000
  H   H46       1.0  0.56100  0.14050  0.14650  1.0000
  H   H47       1.0  0.31100  0.08000  0.31150  1.0000
  H   H48       1.0  0.68900  0.33000  0.68850  1.0000
  H   H49       1.0  0.46700  0.24400  0.32300  1.0000
  H   H50       1.0  0.53300  0.49400  0.67700  1.0000
  H   H51       1.0  0.05300  0.21800  0.14690  1.0000
  H   H52       1.0  0.94700  0.46800  0.85310  1.0000
  H   H53       1.0  0.40800  0.02150  0.35310  1.0000
  H   H54       1.0  0.59200  0.27150  0.64690  1.0000
  H   H55       1.0  0.30400  0.12600  0.36810  1.0000
  H   H56       1.0  0.69600  0.37600  0.63190  1.0000
  H   H57       1.0  0.06500  0.47700  0.18430  1.0000
  H   H58       1.0  0.93500  0.22700  0.81570  1.0000
  H   H59       1.0  0.95800  0.42250  0.60940  1.0000
  H   H60       1.0  0.04200  0.17250  0.39060  1.0000
  H   H61       1.0  0.16000  0.09150  0.21490  1.0000
  H   H62       1.0  0.84000  0.34150  0.78510  1.0000
  H   H63       1.0  0.50700  0.36600  0.16470  1.0000
  H   H64       1.0  0.49300  0.11600  0.83530  1.0000
  H   H65       1.0  0.19100  0.05050  0.15800  1.0000
  H   H66       1.0  0.80900  0.30050  0.84200  1.0000
  H   H67       1.0  0.98700  0.41150  0.33590  1.0000
  H   H68       1.0  0.01300  0.16150  0.66410  1.0000
  H   H69       1.0  0.75500  0.14800  0.24570  1.0000
  H   H70       1.0  0.24500  0.39800  0.75430  1.0000
  C   C1        1.0  0.76794  0.26935  0.47887  1.0000
  C   C2        1.0  0.23206  0.01935  0.52113  1.0000
  C   C3        1.0  0.67982  0.16640  0.47657  1.0000
  C   C4        1.0  0.32018  0.41640  0.52343  1.0000
  C   C5        1.0  0.67660  0.30890  0.39264  1.0000
  C   C6        1.0  0.32340  0.05890  0.60736  1.0000
  C   C7        1.0  0.59278  0.13625  0.43124  1.0000
  C   C8        1.0  0.40722  0.38625  0.56876  1.0000
  C   C9        1.0  0.68210  0.09810  0.52026  1.0000
  C   C10       1.0  0.31790  0.34810  0.47974  1.0000
  C   C11       1.0  0.59110  0.20520  0.38957  1.0000
  C   C12       1.0  0.40890  0.45520  0.61043  1.0000
  C   C13       1.0  0.76230  0.33960  0.43554  1.0000
  C   C14       1.0  0.23770  0.08960  0.56446  1.0000
  C   C15       1.0  0.85814  0.23000  0.56490  1.0000
  C   C16       1.0  0.14186  0.48000  0.43510  1.0000
  C   C17       1.0  0.85838  0.29945  0.52370  1.0000
  C   C18       1.0  0.14162  0.04945  0.47630  1.0000
  C   C19       1.0  0.61173  0.12345  0.30475  1.0000
  C   C20       1.0  0.38827  0.37345  0.69525  1.0000
  C   C21       1.0  0.76830  0.12865  0.56313  1.0000
  C   C22       1.0  0.23170  0.37865  0.43687  1.0000
  C   C23       1.0  0.50250  0.17440  0.33996  1.0000
  C   C24       1.0  0.49750  0.42440  0.66004  1.0000
  C   C25       1.0  0.02690  0.35550  0.61481  1.0000
  C   C26       1.0  0.97310  0.10550  0.38519  1.0000
  C   C27       1.0  0.37190  0.09185  0.34440  1.0000
  C   C28       1.0  0.62810  0.34185  0.65560  1.0000
  C   C29       1.0  0.82750  0.11190  0.01917  1.0000
  C   C30       1.0  0.17250  0.36190  0.98083  1.0000
  C   C31       1.0  0.91410  0.09420  0.10754  1.0000
  C   C32       1.0  0.08590  0.34420  0.89246  1.0000
  C   C33       1.0  0.75360  0.44570  0.06632  1.0000
  C   C34       1.0  0.24640  0.19570  0.93368  1.0000
  C   C35       1.0  0.91040  0.15345  0.06324  1.0000
  C   C36       1.0  0.08960  0.40345  0.93676  1.0000
  C   C37       1.0  0.65720  0.46695  0.97664  1.0000
  C   C38       1.0  0.34280  0.21695  0.02336  1.0000
  C   C39       1.0  0.83560  0.48770  0.10807  1.0000
  C   C40       1.0  0.16440  0.23770  0.89193  1.0000
  C   C41       1.0  0.74200  0.13040  0.93124  1.0000
  C   C42       1.0  0.25800  0.38040  0.06876  1.0000
  C   C43       1.0  0.65640  0.02830  0.93334  1.0000
  C   C44       1.0  0.34360  0.27830  0.06666  1.0000
  C   C45       1.0  0.88440  0.18130  0.19092  1.0000
  C   C46       1.0  0.11560  0.43130  0.80908  1.0000
  C   C47       1.0  0.99750  0.14330  0.15500  1.0000
  C   C48       1.0  0.00250  0.39330  0.84500  1.0000
  C   C49       1.0  0.82410  0.17185  0.97268  1.0000
  C   C50       1.0  0.17590  0.42185  0.02732  1.0000
  C   C51       1.0  0.74500  0.00740  0.02043  1.0000
  C   C52       1.0  0.25500  0.25740  0.97957  1.0000
  C   C53       1.0  0.11540  0.06050  0.18041  1.0000
  C   C54       1.0  0.88460  0.31050  0.81959  1.0000
  C   C55       1.0  0.48370  0.39690  0.88801  1.0000
  C   C56       1.0  0.51630  0.14690  0.11199  1.0000
  C   C57       1.0  0.09990  0.32615  0.29100  1.0000
  C   C58       1.0  0.90010  0.07615  0.70900  1.0000
  C   C59       1.0  0.39670  0.35615  0.21805  1.0000
  C   C60       1.0  0.60330  0.10615  0.78195  1.0000
  O   O1        1.0  0.94108  0.25020  0.60998  1.0000
  O   O2        1.0  0.05892  0.00020  0.39002  1.0000
  O   O3        1.0  0.67303  0.19690  0.27712  1.0000
  O   O4        1.0  0.32697  0.44690  0.72288  1.0000
  O   O5        1.0  0.63735  0.01905  0.30426  1.0000
  O   O6        1.0  0.36265  0.26905  0.69574  1.0000
  O   O7        1.0  0.83393  0.10280  0.21895  1.0000
  O   O8        1.0  0.16607  0.35280  0.78105  1.0000
  O   O9        1.0  0.57566  0.49805  0.88863  1.0000
  O   O10       1.0  0.42434  0.24805  0.11137  1.0000
  O   O11       1.0  0.84738  0.28290  0.19225  1.0000
  O   O12       1.0  0.15262  0.03290  0.80775  1.0000
  O   O13       1.0  0.51701  0.39980  0.19391  1.0000
  O   O14       1.0  0.48299  0.14980  0.80609  1.0000
  O   O15       1.0  0.96468  0.36745  0.30430  1.0000
  O   O16       1.0  0.03532  0.11745  0.69570  1.0000
  Na  Na3       1.0  0.74622  0.90067  0.24858  1.0000
  Na  Na4       1.0  0.25378  0.65067  0.75142  1.0000
  H   H71       1.0  0.17250  0.81965  0.32080  1.0000
  H   H72       1.0  0.82750  0.56965  0.67920  1.0000
  H   H73       1.0  0.13940  0.87960  0.26720  1.0000
  H   H74       1.0  0.86060  0.62960  0.73280  1.0000
  H   H75       1.0  0.08420  0.74980  0.27550  1.0000
  H   H76       1.0  0.91580  0.99980  0.72450  1.0000
  H   H77       1.0  0.30420  0.85670  0.19490  1.0000
  H   H78       1.0  0.69580  0.60670  0.80510  1.0000
  H   H79       1.0  0.38220  0.90460  0.24710  1.0000
  H   H80       1.0  0.61780  0.65460  0.75290  1.0000
  H   H81       1.0  0.41950  0.77665  0.22910  1.0000
  H   H82       1.0  0.58050  0.52665  0.77090  1.0000
  H   H83       1.0  0.59800  0.89900  0.97900  1.0000
  H   H84       1.0  0.40200  0.64900  0.02100  1.0000
  H   H85       1.0  0.53810  0.56200  0.42970  1.0000
  H   H86       1.0  0.46190  0.81200  0.57030  1.0000
  H   H87       1.0  0.88300  0.73950  0.97320  1.0000
  H   H88       1.0  0.11700  0.98950  0.02680  1.0000
  H   H89       1.0  0.91960  0.86700  0.52430  1.0000
  H   H90       1.0  0.08040  0.61700  0.47570  1.0000
  H   H91       1.0  0.76620  0.58350  0.59210  1.0000
  H   H92       1.0  0.23380  0.83350  0.40790  1.0000
  H   H93       1.0  0.96400  0.72550  0.06040  1.0000
  H   H94       1.0  0.03600  0.97550  0.93960  1.0000
  H   H95       1.0  0.67300  0.86050  0.36390  1.0000
  H   H96       1.0  0.32700  0.61050  0.63610  1.0000
  H   H97       1.0  0.69800  0.87150  0.06750  1.0000
  H   H98       1.0  0.30200  0.62150  0.93250  1.0000
  H   H99       1.0  0.62600  0.53200  0.52120  1.0000
  H   H100      1.0  0.37400  0.78200  0.47880  1.0000
  H   H101      1.0  0.74500  0.67200  0.89840  1.0000
  H   H102      1.0  0.25500  0.92200  0.10160  1.0000
  H   H103      1.0  0.83700  0.94250  0.13930  1.0000
  H   H104      1.0  0.16300  0.69250  0.86070  1.0000
  H   H105      1.0  0.82300  0.90950  0.43720  1.0000
  H   H106      1.0  0.17700  0.65950  0.56280  1.0000
  H   H107      1.0  0.07100  0.85650  0.64820  1.0000
  H   H108      1.0  0.92900  0.60650  0.35180  1.0000
  H   H109      1.0  0.10600  0.85100  0.59090  1.0000
  H   H110      1.0  0.89400  0.60100  0.40910  1.0000
  H   H111      1.0  0.40900  0.90650  0.91160  1.0000
  H   H112      1.0  0.59100  0.65650  0.08840  1.0000
  H   H113      1.0  0.55000  0.83200  0.89830  1.0000
  H   H114      1.0  0.45000  0.58200  0.10170  1.0000
  H   H115      1.0  0.43900  0.89050  0.85350  1.0000
  H   H116      1.0  0.56100  0.64050  0.14650  1.0000
  H   H117      1.0  0.31100  0.58000  0.31150  1.0000
  H   H118      1.0  0.68900  0.83000  0.68850  1.0000
  H   H119      1.0  0.46700  0.74400  0.32300  1.0000
  H   H120      1.0  0.53300  0.99400  0.67700  1.0000
  H   H121      1.0  0.05300  0.71800  0.14690  1.0000
  H   H122      1.0  0.94700  0.96800  0.85310  1.0000
  H   H123      1.0  0.40800  0.52150  0.35310  1.0000
  H   H124      1.0  0.59200  0.77150  0.64690  1.0000
  H   H125      1.0  0.30400  0.62600  0.36810  1.0000
  H   H126      1.0  0.69600  0.87600  0.63190  1.0000
  H   H127      1.0  0.06500  0.97700  0.18430  1.0000
  H   H128      1.0  0.93500  0.72700  0.81570  1.0000
  H   H129      1.0  0.95800  0.92250  0.60940  1.0000
  H   H130      1.0  0.04200  0.67250  0.39060  1.0000
  H   H131      1.0  0.16000  0.59150  0.21490  1.0000
  H   H132      1.0  0.84000  0.84150  0.78510  1.0000
  H   H133      1.0  0.50700  0.86600  0.16470  1.0000
  H   H134      1.0  0.49300  0.61600  0.83530  1.0000
  H   H135      1.0  0.19100  0.55050  0.15800  1.0000
  H   H136      1.0  0.80900  0.80050  0.84200  1.0000
  H   H137      1.0  0.98700  0.91150  0.33590  1.0000
  H   H138      1.0  0.01300  0.66150  0.66410  1.0000
  H   H139      1.0  0.75500  0.64800  0.24570  1.0000
  H   H140      1.0  0.24500  0.89800  0.75430  1.0000
  C   C61       1.0  0.76794  0.76935  0.47887  1.0000
  C   C62       1.0  0.23206  0.51935  0.52113  1.0000
  C   C63       1.0  0.67982  0.66640  0.47657  1.0000
  C   C64       1.0  0.32018  0.91640  0.52343  1.0000
  C   C65       1.0  0.67660  0.80890  0.39264  1.0000
  C   C66       1.0  0.32340  0.55890  0.60736  1.0000
  C   C67       1.0  0.59278  0.63625  0.43124  1.0000
  C   C68       1.0  0.40722  0.88625  0.56876  1.0000
  C   C69       1.0  0.68210  0.59810  0.52026  1.0000
  C   C70       1.0  0.31790  0.84810  0.47974  1.0000
  C   C71       1.0  0.59110  0.70520  0.38957  1.0000
  C   C72       1.0  0.40890  0.95520  0.61043  1.0000
  C   C73       1.0  0.76230  0.83960  0.43554  1.0000
  C   C74       1.0  0.23770  0.58960  0.56446  1.0000
  C   C75       1.0  0.85814  0.73000  0.56490  1.0000
  C   C76       1.0  0.14186  0.98000  0.43510  1.0000
  C   C77       1.0  0.85838  0.79945  0.52370  1.0000
  C   C78       1.0  0.14162  0.54945  0.47630  1.0000
  C   C79       1.0  0.61173  0.62345  0.30475  1.0000
  C   C80       1.0  0.38827  0.87345  0.69525  1.0000
  C   C81       1.0  0.76830  0.62865  0.56313  1.0000
  C   C82       1.0  0.23170  0.87865  0.43687  1.0000
  C   C83       1.0  0.50250  0.67440  0.33996  1.0000
  C   C84       1.0  0.49750  0.92440  0.66004  1.0000
  C   C85       1.0  0.02690  0.85550  0.61481  1.0000
  C   C86       1.0  0.97310  0.60550  0.38519  1.0000
  C   C87       1.0  0.37190  0.59185  0.34440  1.0000
  C   C88       1.0  0.62810  0.84185  0.65560  1.0000
  C   C89       1.0  0.82750  0.61190  0.01917  1.0000
  C   C90       1.0  0.17250  0.86190  0.98083  1.0000
  C   C91       1.0  0.91410  0.59420  0.10754  1.0000
  C   C92       1.0  0.08590  0.84420  0.89246  1.0000
  C   C93       1.0  0.75360  0.94570  0.06632  1.0000
  C   C94       1.0  0.24640  0.69570  0.93368  1.0000
  C   C95       1.0  0.91040  0.65345  0.06324  1.0000
  C   C96       1.0  0.08960  0.90345  0.93676  1.0000
  C   C97       1.0  0.65720  0.96695  0.97664  1.0000
  C   C98       1.0  0.34280  0.71695  0.02336  1.0000
  C   C99       1.0  0.83560  0.98770  0.10807  1.0000
  C   C100      1.0  0.16440  0.73770  0.89193  1.0000
  C   C101      1.0  0.74200  0.63040  0.93124  1.0000
  C   C102      1.0  0.25800  0.88040  0.06876  1.0000
  C   C103      1.0  0.65640  0.52830  0.93334  1.0000
  C   C104      1.0  0.34360  0.77830  0.06666  1.0000
  C   C105      1.0  0.88440  0.68130  0.19092  1.0000
  C   C106      1.0  0.11560  0.93130  0.80908  1.0000
  C   C107      1.0  0.99750  0.64330  0.15500  1.0000
  C   C108      1.0  0.00250  0.89330  0.84500  1.0000
  C   C109      1.0  0.82410  0.67185  0.97268  1.0000
  C   C110      1.0  0.17590  0.92185  0.02732  1.0000
  C   C111      1.0  0.74500  0.50740  0.02043  1.0000
  C   C112      1.0  0.25500  0.75740  0.97957  1.0000
  C   C113      1.0  0.11540  0.56050  0.18041  1.0000
  C   C114      1.0  0.88460  0.81050  0.81959  1.0000
  C   C115      1.0  0.48370  0.89690  0.88801  1.0000
  C   C116      1.0  0.51630  0.64690  0.11199  1.0000
  C   C117      1.0  0.09990  0.82615  0.29100  1.0000
  C   C118      1.0  0.90010  0.57615  0.70900  1.0000
  C   C119      1.0  0.39670  0.85615  0.21805  1.0000
  C   C120      1.0  0.60330  0.60615  0.78195  1.0000
  O   O17       1.0  0.94108  0.75020  0.60998  1.0000
  O   O18       1.0  0.05892  0.50020  0.39002  1.0000
  O   O19       1.0  0.67303  0.69690  0.27712  1.0000
  O   O20       1.0  0.32697  0.94690  0.72288  1.0000
  O   O21       1.0  0.63735  0.51905  0.30426  1.0000
  O   O22       1.0  0.36265  0.76905  0.69574  1.0000
  O   O23       1.0  0.83393  0.60280  0.21895  1.0000
  O   O24       1.0  0.16607  0.85280  0.78105  1.0000
  O   O25       1.0  0.57566  0.99805  0.88863  1.0000
  O   O26       1.0  0.42434  0.74805  0.11137  1.0000
  O   O27       1.0  0.84738  0.78290  0.19225  1.0000
  O   O28       1.0  0.15262  0.53290  0.80775  1.0000
  O   O29       1.0  0.51701  0.89980  0.19391  1.0000
  O   O30       1.0  0.48299  0.64980  0.80609  1.0000
  O   O31       1.0  0.96468  0.86745  0.30430  1.0000
  O   O32       1.0  0.03532  0.61745  0.69570  1.0000
