data_image0
_chemical_formula_structural       Co3H90C132N18
_chemical_formula_sum              "Co3 H90 C132 N18"
_cell_length_a       9.2525
_cell_length_b       19.0992
_cell_length_c       19.0992
_cell_angle_alpha    117.444
_cell_angle_beta     99.2929
_cell_angle_gamma    99.2929

_space_group_name_H-M_alt    "P 1"
_space_group_IT_number       1

loop_
  _space_group_symop_operation_xyz
  'x, y, z'

loop_
  _atom_site_type_symbol
  _atom_site_label
  _atom_site_symmetry_multiplicity
  _atom_site_fract_x
  _atom_site_fract_y
  _atom_site_fract_z
  _atom_site_occupancy
  Co  Co1       1.0  0.00000  0.00000  0.50000  1.0000
  Co  Co2       1.0  0.50000  0.50000  0.50000  1.0000
  Co  Co3       1.0  0.00000  0.50000  0.00000  1.0000
  H   H1        1.0  0.74770  0.22440  0.64520  1.0000
  H   H2        1.0  0.10250  0.35480  0.57920  1.0000
  H   H3        1.0  0.52330  0.42080  0.77560  1.0000
  H   H4        1.0  0.25230  0.77560  0.35480  1.0000
  H   H5        1.0  0.89750  0.64520  0.42080  1.0000
  H   H6        1.0  0.47670  0.57920  0.22440  1.0000
  H   H7        1.0  0.58040  0.14550  0.50510  1.0000
  H   H8        1.0  0.07530  0.49490  0.64040  1.0000
  H   H9        1.0  0.43490  0.35960  0.85450  1.0000
  H   H10       1.0  0.41960  0.85450  0.49490  1.0000
  H   H11       1.0  0.92470  0.50510  0.35960  1.0000
  H   H12       1.0  0.56510  0.64040  0.14550  1.0000
  H   H13       1.0  0.58630  0.88560  0.23340  1.0000
  H   H14       1.0  0.35290  0.76660  0.65220  1.0000
  H   H15       1.0  0.70070  0.34780  0.11440  1.0000
  H   H16       1.0  0.41370  0.11440  0.76660  1.0000
  H   H17       1.0  0.64710  0.23340  0.34780  1.0000
  H   H18       1.0  0.29930  0.65220  0.88560  1.0000
  H   H19       1.0  0.75740  0.79710  0.19710  1.0000
  H   H20       1.0  0.56030  0.80290  0.60000  1.0000
  H   H21       1.0  0.96030  0.40000  0.20290  1.0000
  H   H22       1.0  0.24260  0.20290  0.80290  1.0000
  H   H23       1.0  0.43970  0.19710  0.40000  1.0000
  H   H24       1.0  0.03970  0.60000  0.79710  1.0000
  H   H25       1.0  0.38580  0.98560  0.41030  1.0000
  H   H26       1.0  0.97550  0.58970  0.57530  1.0000
  H   H27       1.0  0.40020  0.42470  0.01440  1.0000
  H   H28       1.0  0.61420  0.01440  0.58970  1.0000
  H   H29       1.0  0.02450  0.41030  0.42470  1.0000
  H   H30       1.0  0.59980  0.57530  0.98560  1.0000
  H   H31       1.0  0.16420  0.98870  0.33850  1.0000
  H   H32       1.0  0.82570  0.66150  0.65020  1.0000
  H   H33       1.0  0.17550  0.34980  0.01130  1.0000
  H   H34       1.0  0.83580  0.01130  0.66150  1.0000
  H   H35       1.0  0.17430  0.33850  0.34980  1.0000
  H   H36       1.0  0.82450  0.65020  0.98870  1.0000
  H   H37       1.0  0.39320  0.05230  0.20740  1.0000
  H   H38       1.0  0.18580  0.79260  0.84490  1.0000
  H   H39       1.0  0.34090  0.15510  0.94770  1.0000
  H   H40       1.0  0.60680  0.94770  0.79260  1.0000
  H   H41       1.0  0.81420  0.20740  0.15510  1.0000
  H   H42       1.0  0.65910  0.84490  0.05230  1.0000
  H   H43       1.0  0.61550  0.04760  0.27780  1.0000
  H   H44       1.0  0.33770  0.72220  0.76980  1.0000
  H   H45       1.0  0.56790  0.23020  0.95240  1.0000
  H   H46       1.0  0.38450  0.95240  0.72220  1.0000
  H   H47       1.0  0.66230  0.27780  0.23020  1.0000
  H   H48       1.0  0.43210  0.76980  0.04760  1.0000
  H   H49       1.0  0.02420  0.98850  0.21810  1.0000
  H   H50       1.0  0.80610  0.78190  0.77040  1.0000
  H   H51       1.0  0.03570  0.22960  0.01150  1.0000
  H   H52       1.0  0.97580  0.01150  0.78190  1.0000
  H   H53       1.0  0.19390  0.21810  0.22960  1.0000
  H   H54       1.0  0.96430  0.77040  0.98850  1.0000
  H   H55       1.0  0.11370  0.01460  0.16710  1.0000
  H   H56       1.0  0.94660  0.83290  0.84750  1.0000
  H   H57       1.0  0.09910  0.15250  0.98540  1.0000
  H   H58       1.0  0.88630  0.98540  0.83290  1.0000
  H   H59       1.0  0.05340  0.16710  0.15250  1.0000
  H   H60       1.0  0.90090  0.84750  0.01460  1.0000
  H   H61       1.0  0.09820  0.08140  0.25090  1.0000
  H   H62       1.0  0.84730  0.74910  0.83050  1.0000
  H   H63       1.0  0.01680  0.16950  0.91860  1.0000
  H   H64       1.0  0.90180  0.91860  0.74910  1.0000
  H   H65       1.0  0.15270  0.25090  0.16950  1.0000
  H   H66       1.0  0.98320  0.83050  0.08140  1.0000
  H   H67       1.0  0.16590  0.80740  0.21440  1.0000
  H   H68       1.0  0.95150  0.78560  0.59300  1.0000
  H   H69       1.0  0.35850  0.40700  0.19260  1.0000
  H   H70       1.0  0.83410  0.19260  0.78560  1.0000
  H   H71       1.0  0.04850  0.21440  0.40700  1.0000
  H   H72       1.0  0.64150  0.59300  0.80740  1.0000
  H   H73       1.0  0.14350  0.68950  0.09590  1.0000
  H   H74       1.0  0.04760  0.90410  0.59360  1.0000
  H   H75       1.0  0.45400  0.40640  0.31050  1.0000
  H   H76       1.0  0.85650  0.31050  0.90410  1.0000
  H   H77       1.0  0.95240  0.09590  0.40640  1.0000
  H   H78       1.0  0.54600  0.59360  0.68950  1.0000
  H   H79       1.0  0.81740  0.56800  0.13490  1.0000
  H   H80       1.0  0.68250  0.86510  0.43310  1.0000
  H   H81       1.0  0.24940  0.56690  0.43200  1.0000
  H   H82       1.0  0.18260  0.43200  0.86510  1.0000
  H   H83       1.0  0.31750  0.13490  0.56690  1.0000
  H   H84       1.0  0.75060  0.43310  0.56800  1.0000
  H   H85       1.0  0.83030  0.68250  0.25530  1.0000
  H   H86       1.0  0.57500  0.74470  0.42720  1.0000
  H   H87       1.0  0.14780  0.57280  0.31750  1.0000
  H   H88       1.0  0.16970  0.31750  0.74470  1.0000
  H   H89       1.0  0.42500  0.25530  0.57280  1.0000
  H   H90       1.0  0.85220  0.42720  0.68250  1.0000
  C   C1        1.0  0.87494  0.13677  0.60575  1.0000
  C   C2        1.0  0.26919  0.39425  0.53102  1.0000
  C   C3        1.0  0.73817  0.46898  0.86323  1.0000
  C   C4        1.0  0.12506  0.86323  0.39425  1.0000
  C   C5        1.0  0.73081  0.60575  0.46898  1.0000
  C   C6        1.0  0.26183  0.53102  0.13677  1.0000
  C   C7        1.0  0.75795  0.17718  0.60227  1.0000
  C   C8        1.0  0.15568  0.39773  0.57491  1.0000
  C   C9        1.0  0.58077  0.42509  0.82282  1.0000
  C   C10       1.0  0.24205  0.82282  0.39773  1.0000
  C   C11       1.0  0.84432  0.60227  0.42509  1.0000
  C   C12       1.0  0.41923  0.57491  0.17718  1.0000
  C   C13       1.0  0.66613  0.13400  0.52539  1.0000
  C   C14       1.0  0.14074  0.47461  0.60861  1.0000
  C   C15       1.0  0.53213  0.39139  0.86600  1.0000
  C   C16       1.0  0.33387  0.86600  0.47461  1.0000
  C   C17       1.0  0.85926  0.52539  0.39139  1.0000
  C   C18       1.0  0.46787  0.60861  0.13400  1.0000
  C   C19       1.0  0.72613  0.06663  0.48086  1.0000
  C   C20       1.0  0.24527  0.51914  0.58577  1.0000
  C   C21       1.0  0.65950  0.41423  0.93337  1.0000
  C   C22       1.0  0.27387  0.93337  0.51914  1.0000
  C   C23       1.0  0.75473  0.48086  0.41423  1.0000
  C   C24       1.0  0.34050  0.58577  0.06663  1.0000
  C   C25       1.0  0.66827  0.01112  0.39729  1.0000
  C   C26       1.0  0.27098  0.60271  0.61383  1.0000
  C   C27       1.0  0.65715  0.38617  0.98888  1.0000
  C   C28       1.0  0.33173  0.98888  0.60271  1.0000
  C   C29       1.0  0.72902  0.39729  0.38617  1.0000
  C   C30       1.0  0.34285  0.61383  0.01112  1.0000
  C   C31       1.0  0.73699  0.95145  0.35322  1.0000
  C   C32       1.0  0.38377  0.64678  0.59823  1.0000
  C   C33       1.0  0.78554  0.40177  0.04855  1.0000
  C   C34       1.0  0.26301  0.04855  0.64678  1.0000
  C   C35       1.0  0.61623  0.35322  0.40177  1.0000
  C   C36       1.0  0.21446  0.59823  0.95145  1.0000
  C   C37       1.0  0.67502  0.89045  0.26821  1.0000
  C   C38       1.0  0.40681  0.73179  0.62224  1.0000
  C   C39       1.0  0.78457  0.37776  0.10955  1.0000
  C   C40       1.0  0.32498  0.10955  0.73179  1.0000
  C   C41       1.0  0.59319  0.26821  0.37776  1.0000
  C   C42       1.0  0.21543  0.62224  0.89045  1.0000
  C   C43       1.0  0.76878  0.84184  0.24830  1.0000
  C   C44       1.0  0.52048  0.75170  0.59354  1.0000
  C   C45       1.0  0.92694  0.40646  0.15816  1.0000
  C   C46       1.0  0.23122  0.15816  0.75170  1.0000
  C   C47       1.0  0.47952  0.24830  0.40646  1.0000
  C   C48       1.0  0.07306  0.59354  0.84184  1.0000
  C   C49       1.0  0.88996  0.87174  0.32094  1.0000
  C   C50       1.0  0.56902  0.67906  0.55080  1.0000
  C   C51       1.0  0.01822  0.44920  0.12826  1.0000
  C   C52       1.0  0.11004  0.12826  0.67906  1.0000
  C   C53       1.0  0.43098  0.32094  0.44920  1.0000
  C   C54       1.0  0.98178  0.55080  0.87174  1.0000
  C   C55       1.0  0.00586  0.83501  0.32497  1.0000
  C   C56       1.0  0.68089  0.67503  0.51004  1.0000
  C   C57       1.0  0.17085  0.48996  0.16499  1.0000
  C   C58       1.0  0.99414  0.16499  0.67503  1.0000
  C   C59       1.0  0.31911  0.32497  0.48996  1.0000
  C   C60       1.0  0.82915  0.51004  0.83501  1.0000
  C   C61       1.0  0.52506  0.01556  0.35202  1.0000
  C   C62       1.0  0.17304  0.64798  0.66354  1.0000
  C   C63       1.0  0.50950  0.33646  0.98444  1.0000
  C   C64       1.0  0.47494  0.98444  0.64798  1.0000
  C   C65       1.0  0.82696  0.35202  0.33646  1.0000
  C   C66       1.0  0.49050  0.66354  0.01556  1.0000
  C   C67       1.0  0.38840  0.99873  0.36927  1.0000
  C   C68       1.0  0.01913  0.63073  0.62946  1.0000
  C   C69       1.0  0.38967  0.37054  0.00127  1.0000
  C   C70       1.0  0.61160  0.00127  0.63073  1.0000
  C   C71       1.0  0.98087  0.36927  0.37054  1.0000
  C   C72       1.0  0.61033  0.62946  0.99873  1.0000
  C   C73       1.0  0.25487  0.00114  0.32627  1.0000
  C   C74       1.0  0.92860  0.67373  0.67487  1.0000
  C   C75       1.0  0.25373  0.32513  0.99886  1.0000
  C   C76       1.0  0.74513  0.99886  0.67373  1.0000
  C   C77       1.0  0.07140  0.32627  0.32513  1.0000
  C   C78       1.0  0.74627  0.67487  0.00114  1.0000
  C   C79       1.0  0.25424  0.02163  0.26549  1.0000
  C   C80       1.0  0.98875  0.73451  0.75614  1.0000
  C   C81       1.0  0.23261  0.24386  0.97837  1.0000
  C   C82       1.0  0.74576  0.97837  0.73451  1.0000
  C   C83       1.0  0.01125  0.26549  0.24386  1.0000
  C   C84       1.0  0.76739  0.75614  0.02163  1.0000
  C   C85       1.0  0.39107  0.03876  0.24815  1.0000
  C   C86       1.0  0.14292  0.75185  0.79061  1.0000
  C   C87       1.0  0.35231  0.20939  0.96124  1.0000
  C   C88       1.0  0.60893  0.96124  0.75185  1.0000
  C   C89       1.0  0.85708  0.24815  0.20939  1.0000
  C   C90       1.0  0.64769  0.79061  0.03876  1.0000
  C   C91       1.0  0.52515  0.03591  0.29054  1.0000
  C   C92       1.0  0.23461  0.70946  0.74537  1.0000
  C   C93       1.0  0.48924  0.25463  0.96409  1.0000
  C   C94       1.0  0.47485  0.96409  0.70946  1.0000
  C   C95       1.0  0.76539  0.29054  0.25463  1.0000
  C   C96       1.0  0.51076  0.74537  0.03591  1.0000
  C   C97       1.0  0.10943  0.02702  0.22137  1.0000
  C   C98       1.0  0.88806  0.77863  0.80565  1.0000
  C   C99       1.0  0.08241  0.19435  0.97298  1.0000
  C   C100      1.0  0.89057  0.97298  0.77863  1.0000
  C   C101      1.0  0.11194  0.22137  0.19435  1.0000
  C   C102      1.0  0.91759  0.80565  0.02702  1.0000
  C   C103      1.0  0.00028  0.75894  0.24900  1.0000
  C   C104      1.0  0.75128  0.75100  0.50994  1.0000
  C   C105      1.0  0.24134  0.49006  0.24106  1.0000
  C   C106      1.0  0.99972  0.24106  0.75100  1.0000
  C   C107      1.0  0.24872  0.24900  0.49006  1.0000
  C   C108      1.0  0.75866  0.50994  0.75894  1.0000
  C   C109      1.0  0.09402  0.75945  0.19971  1.0000
  C   C110      1.0  0.89431  0.80029  0.55974  1.0000
  C   C111      1.0  0.33457  0.44026  0.24055  1.0000
  C   C112      1.0  0.90598  0.24055  0.80029  1.0000
  C   C113      1.0  0.10569  0.19971  0.44026  1.0000
  C   C114      1.0  0.66543  0.55974  0.75945  1.0000
  C   C115      1.0  0.07941  0.68796  0.12837  1.0000
  C   C116      1.0  0.95104  0.87163  0.55959  1.0000
  C   C117      1.0  0.39145  0.44041  0.31204  1.0000
  C   C118      1.0  0.92059  0.31204  0.87163  1.0000
  C   C119      1.0  0.04896  0.12837  0.44041  1.0000
  C   C120      1.0  0.60855  0.55959  0.68796  1.0000
  C   C121      1.0  0.88857  0.61673  0.15118  1.0000
  C   C122      1.0  0.73739  0.84882  0.46555  1.0000
  C   C123      1.0  0.27184  0.53445  0.38327  1.0000
  C   C124      1.0  0.11143  0.38327  0.84882  1.0000
  C   C125      1.0  0.26261  0.15118  0.53445  1.0000
  C   C126      1.0  0.72816  0.46555  0.61673  1.0000
  C   C127      1.0  0.89527  0.68542  0.22379  1.0000
  C   C128      1.0  0.67148  0.77621  0.46163  1.0000
  C   C129      1.0  0.20985  0.53837  0.31458  1.0000
  C   C130      1.0  0.10473  0.31458  0.77621  1.0000
  C   C131      1.0  0.32852  0.22379  0.53837  1.0000
  C   C132      1.0  0.79015  0.46163  0.68542  1.0000
  N   N1        1.0  0.85430  0.06848  0.53112  1.0000
  N   N2        1.0  0.32318  0.46888  0.53736  1.0000
  N   N3        1.0  0.78582  0.46264  0.93152  1.0000
  N   N4        1.0  0.14570  0.93152  0.46888  1.0000
  N   N5        1.0  0.67682  0.53112  0.46264  1.0000
  N   N6        1.0  0.21418  0.53736  0.06848  1.0000
  N   N7        1.0  0.87087  0.94013  0.38488  1.0000
  N   N8        1.0  0.48599  0.61512  0.55525  1.0000
  N   N9        1.0  0.93074  0.44475  0.05987  1.0000
  N   N10       1.0  0.12913  0.05987  0.61512  1.0000
  N   N11       1.0  0.51401  0.38488  0.44475  1.0000
  N   N12       1.0  0.06926  0.55525  0.94013  1.0000
  N   N13       1.0  0.97871  0.61665  0.10308  1.0000
  N   N14       1.0  0.87563  0.89692  0.51357  1.0000
  N   N15       1.0  0.36206  0.48643  0.38335  1.0000
  N   N16       1.0  0.02129  0.38335  0.89692  1.0000
  N   N17       1.0  0.12437  0.10308  0.48643  1.0000
  N   N18       1.0  0.63794  0.51357  0.61665  1.0000
