data_image0
_chemical_formula_structural       ZnH16C22S6N6
_chemical_formula_sum              "Zn1 H16 C22 S6 N6"
_cell_length_a       9.208
_cell_length_b       10.364
_cell_length_c       10.612
_cell_angle_alpha    106.197
_cell_angle_beta     96.058
_cell_angle_gamma    110.384

_space_group_name_H-M_alt    "P 1"
_space_group_IT_number       1

loop_
  _space_group_symop_operation_xyz
  'x, y, z'

loop_
  _atom_site_type_symbol
  _atom_site_label
  _atom_site_symmetry_multiplicity
  _atom_site_fract_x
  _atom_site_fract_y
  _atom_site_fract_z
  _atom_site_occupancy
  Zn  Zn1       1.0  0.00000  0.00000  0.00000  1.0000
  H   H1        1.0  0.04890  0.19850  0.29610  1.0000
  H   H2        1.0  0.95110  0.80150  0.70390  1.0000
  H   H3        1.0  0.22370  0.30950  0.50070  1.0000
  H   H4        1.0  0.77630  0.69050  0.49930  1.0000
  H   H5        1.0  0.20660  0.98930  0.77240  1.0000
  H   H6        1.0  0.79340  0.01070  0.22760  1.0000
  H   H7        1.0  0.35410  0.07820  0.12560  1.0000
  H   H8        1.0  0.64590  0.92180  0.87440  1.0000
  H   H9        1.0  0.54230  0.19080  0.32290  1.0000
  H   H10       1.0  0.45770  0.80920  0.67710  1.0000
  H   H11       1.0  0.17290  0.31890  0.03080  1.0000
  H   H12       1.0  0.82710  0.68110  0.96920  1.0000
  H   H13       1.0  0.35650  0.13530  0.66960  1.0000
  H   H14       1.0  0.64350  0.86470  0.33040  1.0000
  H   H15       1.0  0.32780  0.47660  0.94020  1.0000
  H   H16       1.0  0.67220  0.52340  0.05980  1.0000
  C   C1        1.0  0.40310  0.26390  0.43500  1.0000
  C   C2        1.0  0.59690  0.73610  0.56500  1.0000
  C   C3        1.0  0.79650  0.19190  0.04710  1.0000
  C   C4        1.0  0.20350  0.80810  0.95290  1.0000
  C   C5        1.0  0.14890  0.19510  0.30250  1.0000
  C   C6        1.0  0.85110  0.80490  0.69750  1.0000
  C   C7        1.0  0.25360  0.26380  0.42540  1.0000
  C   C8        1.0  0.74640  0.73620  0.57460  1.0000
  C   C9        1.0  0.22880  0.08890  0.80480  1.0000
  C   C10       1.0  0.77120  0.91110  0.19520  1.0000
  C   C11       1.0  0.32800  0.12550  0.20250  1.0000
  C   C12       1.0  0.67200  0.87450  0.79750  1.0000
  C   C13       1.0  0.44180  0.19270  0.32000  1.0000
  C   C14       1.0  0.55820  0.80730  0.68000  1.0000
  C   C15       1.0  0.20980  0.28150  0.95660  1.0000
  C   C16       1.0  0.79020  0.71850  0.04340  1.0000
  C   C17       1.0  0.32030  0.17550  0.74330  1.0000
  C   C18       1.0  0.67970  0.82450  0.25670  1.0000
  C   C19       1.0  0.30230  0.37680  0.90280  1.0000
  C   C20       1.0  0.69770  0.62320  0.09720  1.0000
  C   C21       1.0  0.35790  0.32360  0.79250  1.0000
  C   C22       1.0  0.64210  0.67640  0.20750  1.0000
  S   S1        1.0  0.55421  0.34487  0.58378  1.0000
  S   S2        1.0  0.44579  0.65513  0.41622  1.0000
  S   S3        1.0  0.64899  0.24269  0.04000  1.0000
  S   S4        1.0  0.35101  0.75731  0.96000  1.0000
  S   S5        1.0  0.46870  0.45392  0.72498  1.0000
  S   S6        1.0  0.53130  0.54608  0.27502  1.0000
  N   N1        1.0  0.89740  0.15240  0.04870  1.0000
  N   N2        1.0  0.10260  0.84760  0.95130  1.0000
  N   N3        1.0  0.18190  0.12380  0.19200  1.0000
  N   N4        1.0  0.81810  0.87620  0.80800  1.0000
  N   N5        1.0  0.16950  0.13740  0.90810  1.0000
  N   N6        1.0  0.83050  0.86260  0.09190  1.0000
