data_image0
_chemical_formula_structural       Eu2H26Au2C42N18O12
_chemical_formula_sum              "Eu2 H26 Au2 C42 N18 O12"
_cell_length_a       10.8762
_cell_length_b       10.9064
_cell_length_c       12.251
_cell_angle_alpha    75.952
_cell_angle_beta     76.275
_cell_angle_gamma    78.378

_space_group_name_H-M_alt    "P 1"
_space_group_IT_number       1

loop_
  _space_group_symop_operation_xyz
  'x, y, z'

loop_
  _atom_site_type_symbol
  _atom_site_label
  _atom_site_symmetry_multiplicity
  _atom_site_fract_x
  _atom_site_fract_y
  _atom_site_fract_z
  _atom_site_occupancy
  Eu  Eu1       1.0  0.79439  0.69416  0.25073  1.0000
  Eu  Eu2       1.0  0.20561  0.30584  0.74927  1.0000
  H   H1        1.0  0.09780  0.57010  0.06200  1.0000
  H   H2        1.0  0.90220  0.42990  0.93800  1.0000
  H   H3        1.0  0.30460  0.47700  0.99380  1.0000
  H   H4        1.0  0.69540  0.52300  0.00620  1.0000
  H   H5        1.0  0.46210  0.43490  0.10200  1.0000
  H   H6        1.0  0.53790  0.56510  0.89800  1.0000
  H   H7        1.0  0.41820  0.48430  0.28190  1.0000
  H   H8        1.0  0.58180  0.51570  0.71810  1.0000
  H   H9        1.0  0.05700  0.66600  0.58830  1.0000
  H   H10       1.0  0.94300  0.33400  0.41170  1.0000
  H   H11       1.0  0.88770  0.74310  0.72240  1.0000
  H   H12       1.0  0.11230  0.25690  0.27760  1.0000
  H   H13       1.0  0.68550  0.81010  0.67730  1.0000
  H   H14       1.0  0.31450  0.18990  0.32270  1.0000
  H   H15       1.0  0.23510  0.91750  0.57680  1.0000
  H   H16       1.0  0.76490  0.08250  0.42320  1.0000
  H   H17       1.0  0.12500  0.93400  0.43190  1.0000
  H   H18       1.0  0.87500  0.06600  0.56810  1.0000
  H   H19       1.0  0.23030  0.89710  0.25510  1.0000
  H   H20       1.0  0.76970  0.10290  0.74490  1.0000
  H   H21       1.0  0.45140  0.83630  0.21490  1.0000
  H   H22       1.0  0.54860  0.16370  0.78510  1.0000
  H   H23       1.0  0.48880  0.85440  0.62280  1.0000
  H   H24       1.0  0.51120  0.14560  0.37720  1.0000
  H   H25       1.0  0.21280  0.58890  0.44290  1.0000
  H   H26       1.0  0.78720  0.41110  0.55710  1.0000
  Au  Au1       1.0  0.88868  0.19388  0.18126  1.0000
  Au  Au2       1.0  0.11132  0.80612  0.81874  1.0000
  C   C1        1.0  0.13480  0.58150  0.21400  1.0000
  C   C2        1.0  0.86520  0.41850  0.78600  1.0000
  C   C3        1.0  0.16150  0.55260  0.10510  1.0000
  C   C4        1.0  0.83850  0.44740  0.89490  1.0000
  C   C5        1.0  0.28360  0.49790  0.06600  1.0000
  C   C6        1.0  0.71640  0.50210  0.93400  1.0000
  C   C7        1.0  0.37950  0.47240  0.13080  1.0000
  C   C8        1.0  0.62050  0.52760  0.86920  1.0000
  C   C9        1.0  0.35490  0.50070  0.23820  1.0000
  C   C10       1.0  0.64510  0.49930  0.76180  1.0000
  C   C11       1.0  0.23180  0.55620  0.27840  1.0000
  C   C12       1.0  0.76820  0.44380  0.72160  1.0000
  C   C13       1.0  0.04940  0.63880  0.37620  1.0000
  C   C14       1.0  0.95060  0.36120  0.62380  1.0000
  C   C15       1.0  0.95160  0.68810  0.46660  1.0000
  C   C16       1.0  0.04840  0.31190  0.53340  1.0000
  C   C17       1.0  0.97560  0.69330  0.57250  1.0000
  C   C18       1.0  0.02440  0.30670  0.42750  1.0000
  C   C19       1.0  0.87450  0.73910  0.65130  1.0000
  C   C20       1.0  0.12550  0.26090  0.34870  1.0000
  C   C21       1.0  0.75450  0.77880  0.62490  1.0000
  C   C22       1.0  0.24550  0.22120  0.37510  1.0000
  C   C23       1.0  0.73870  0.77010  0.51780  1.0000
  C   C24       1.0  0.26130  0.22990  0.48220  1.0000
  C   C25       1.0  0.61570  0.80720  0.48000  1.0000
  C   C26       1.0  0.38430  0.19280  0.52000  1.0000
  C   C27       1.0  0.41030  0.86580  0.48090  1.0000
  C   C28       1.0  0.58970  0.13420  0.51910  1.0000
  C   C29       1.0  0.27720  0.90140  0.50530  1.0000
  C   C30       1.0  0.72280  0.09860  0.49470  1.0000
  C   C31       1.0  0.21400  0.91120  0.41860  1.0000
  C   C32       1.0  0.78600  0.08880  0.58140  1.0000
  C   C33       1.0  0.27800  0.88760  0.31160  1.0000
  C   C34       1.0  0.72200  0.11240  0.68840  1.0000
  C   C35       1.0  0.40870  0.85270  0.28690  1.0000
  C   C36       1.0  0.59130  0.14730  0.71310  1.0000
  C   C37       1.0  0.47630  0.84160  0.37330  1.0000
  C   C38       1.0  0.52370  0.15840  0.62670  1.0000
  C   C39       1.0  0.88150  0.37570  0.18200  1.0000
  C   C40       1.0  0.11850  0.62430  0.81800  1.0000
  C   C41       1.0  0.88080  0.01150  0.19190  1.0000
  C   C42       1.0  0.11920  0.98850  0.80810  1.0000
  N   N1        1.0  0.02060  0.63360  0.27720  1.0000
  N   N2        1.0  0.97940  0.36640  0.72280  1.0000
  N   N3        1.0  0.17290  0.59370  0.38060  1.0000
  N   N4        1.0  0.82710  0.40630  0.61940  1.0000
  N   N5        1.0  0.83520  0.72590  0.44050  1.0000
  N   N6        1.0  0.16480  0.27410  0.55950  1.0000
  N   N7        1.0  0.60500  0.80450  0.37440  1.0000
  N   N8        1.0  0.39500  0.19550  0.62560  1.0000
  N   N9        1.0  0.50250  0.84450  0.54570  1.0000
  N   N10       1.0  0.49750  0.15550  0.45430  1.0000
  N   N11       1.0  0.87000  0.48100  0.18900  1.0000
  N   N12       1.0  0.13000  0.51900  0.81100  1.0000
  N   N13       1.0  0.86370  0.90830  0.20510  1.0000
  N   N14       1.0  0.13630  0.09170  0.79490  1.0000
  N   N15       1.0  0.77210  0.79440  0.01390  1.0000
  N   N16       1.0  0.22790  0.20560  0.98610  1.0000
  N   N17       1.0  0.63700  0.49780  0.37730  1.0000
  N   N18       1.0  0.36300  0.50220  0.62270  1.0000
  O   O1        1.0  0.87760  0.73840  0.03920  1.0000
  O   O2        1.0  0.12240  0.26160  0.96080  1.0000
  O   O3        1.0  0.67830  0.80270  0.09730  1.0000
  O   O4        1.0  0.32170  0.19730  0.90270  1.0000
  O   O5        1.0  0.75980  0.84100  0.91630  1.0000
  O   O6        1.0  0.24020  0.15900  0.08370  1.0000
  O   O7        1.0  0.73010  0.51760  0.41410  1.0000
  O   O8        1.0  0.26990  0.48240  0.58590  1.0000
  O   O9        1.0  0.61180  0.57440  0.28700  1.0000
  O   O10       1.0  0.38820  0.42560  0.71300  1.0000
  O   O11       1.0  0.57910  0.41050  0.42490  1.0000
  O   O12       1.0  0.42090  0.58950  0.57510  1.0000
