data_image0
_chemical_formula_structural       Zn12H112C120N36O56
_chemical_formula_sum              "Zn12 H112 C120 N36 O56"
_cell_length_a       8.931
_cell_length_b       22.681
_cell_length_c       19.916
_cell_angle_alpha    90
_cell_angle_beta     98.31
_cell_angle_gamma    90

_space_group_name_H-M_alt    "P 1"
_space_group_IT_number       1

loop_
  _space_group_symop_operation_xyz
  'x, y, z'

loop_
  _atom_site_type_symbol
  _atom_site_label
  _atom_site_symmetry_multiplicity
  _atom_site_fract_x
  _atom_site_fract_y
  _atom_site_fract_z
  _atom_site_occupancy
  Zn  Zn1       1.0  0.57160  0.36025  0.73054  1.0000
  Zn  Zn2       1.0  0.42840  0.86025  0.76946  1.0000
  Zn  Zn3       1.0  0.42840  0.63975  0.26946  1.0000
  Zn  Zn4       1.0  0.57160  0.13975  0.23054  1.0000
  Zn  Zn5       1.0  0.50814  0.24739  0.64298  1.0000
  Zn  Zn6       1.0  0.49186  0.74739  0.85702  1.0000
  Zn  Zn7       1.0  0.49186  0.75261  0.35702  1.0000
  Zn  Zn8       1.0  0.50814  0.25261  0.14298  1.0000
  Zn  Zn9       1.0  0.56501  0.03303  0.67035  1.0000
  Zn  Zn10      1.0  0.43499  0.53303  0.82965  1.0000
  Zn  Zn11      1.0  0.43499  0.96697  0.32965  1.0000
  Zn  Zn12      1.0  0.56501  0.46697  0.17035  1.0000
  H   H1        1.0  0.38740  0.36910  0.61080  1.0000
  H   H2        1.0  0.61260  0.86910  0.88920  1.0000
  H   H3        1.0  0.61260  0.63090  0.38920  1.0000
  H   H4        1.0  0.38740  0.13090  0.11080  1.0000
  H   H5        1.0  0.31260  0.38880  0.66200  1.0000
  H   H6        1.0  0.68740  0.88880  0.83800  1.0000
  H   H7        1.0  0.68740  0.61120  0.33800  1.0000
  H   H8        1.0  0.31260  0.11120  0.16200  1.0000
  H   H9        1.0  0.72120  0.45050  0.67890  1.0000
  H   H10       1.0  0.27880  0.95050  0.82110  1.0000
  H   H11       1.0  0.27880  0.54950  0.32110  1.0000
  H   H12       1.0  0.72120  0.04950  0.17890  1.0000
  H   H13       1.0  0.65940  0.46970  0.73420  1.0000
  H   H14       1.0  0.34060  0.96970  0.76580  1.0000
  H   H15       1.0  0.34060  0.53030  0.26580  1.0000
  H   H16       1.0  0.65940  0.03030  0.23420  1.0000
  H   H17       1.0  0.86100  0.16110  0.58240  1.0000
  H   H18       1.0  0.13900  0.66110  0.91760  1.0000
  H   H19       1.0  0.13900  0.83890  0.41760  1.0000
  H   H20       1.0  0.86100  0.33890  0.08240  1.0000
  H   H21       1.0  0.73580  0.14880  0.52060  1.0000
  H   H22       1.0  0.26420  0.64880  0.97940  1.0000
  H   H23       1.0  0.26420  0.85120  0.47940  1.0000
  H   H24       1.0  0.73580  0.35120  0.02060  1.0000
  H   H25       1.0  0.89200  0.29320  0.55730  1.0000
  H   H26       1.0  0.10800  0.79320  0.94270  1.0000
  H   H27       1.0  0.10800  0.70680  0.44270  1.0000
  H   H28       1.0  0.89200  0.20680  0.05730  1.0000
  H   H29       1.0  0.93030  0.24580  0.61410  1.0000
  H   H30       1.0  0.06970  0.74580  0.88590  1.0000
  H   H31       1.0  0.06970  0.75420  0.38590  1.0000
  H   H32       1.0  0.93030  0.25420  0.11410  1.0000
  H   H33       1.0  0.24000  0.13590  0.38390  1.0000
  H   H34       1.0  0.76000  0.63590  0.11610  1.0000
  H   H35       1.0  0.76000  0.86410  0.61610  1.0000
  H   H36       1.0  0.24000  0.36410  0.88390  1.0000
  H   H37       1.0  0.39220  0.13620  0.43360  1.0000
  H   H38       1.0  0.60780  0.63620  0.06640  1.0000
  H   H39       1.0  0.60780  0.86380  0.56640  1.0000
  H   H40       1.0  0.39220  0.36380  0.93360  1.0000
  H   H41       1.0  0.22010  0.25460  0.32910  1.0000
  H   H42       1.0  0.77990  0.75460  0.17090  1.0000
  H   H43       1.0  0.77990  0.74540  0.67090  1.0000
  H   H44       1.0  0.22010  0.24540  0.82910  1.0000
  H   H45       1.0  0.20510  0.19410  0.29130  1.0000
  H   H46       1.0  0.79490  0.69410  0.20870  1.0000
  H   H47       1.0  0.79490  0.80590  0.70870  1.0000
  H   H48       1.0  0.20510  0.30590  0.79130  1.0000
  H   H49       1.0  0.65530  0.46270  0.44290  1.0000
  H   H50       1.0  0.34470  0.96270  0.05710  1.0000
  H   H51       1.0  0.34470  0.53730  0.55710  1.0000
  H   H52       1.0  0.65530  0.03730  0.94290  1.0000
  H   H53       1.0  0.75290  0.40870  0.47240  1.0000
  H   H54       1.0  0.24710  0.90870  0.02760  1.0000
  H   H55       1.0  0.24710  0.59130  0.52760  1.0000
  H   H56       1.0  0.75290  0.09130  0.97240  1.0000
  H   H57       1.0  0.41900  0.44680  0.37080  1.0000
  H   H58       1.0  0.58100  0.94680  0.12920  1.0000
  H   H59       1.0  0.58100  0.55320  0.62920  1.0000
  H   H60       1.0  0.41900  0.05320  0.87080  1.0000
  H   H61       1.0  0.38390  0.38340  0.34150  1.0000
  H   H62       1.0  0.61610  0.88340  0.15850  1.0000
  H   H63       1.0  0.61610  0.61660  0.65850  1.0000
  H   H64       1.0  0.38390  0.11660  0.84150  1.0000
  H   H65       1.0  0.79880  0.41090  0.83510  1.0000
  H   H66       1.0  0.20120  0.91090  0.66490  1.0000
  H   H67       1.0  0.20120  0.58910  0.16490  1.0000
  H   H68       1.0  0.79880  0.08910  0.33510  1.0000
  H   H69       1.0  0.98120  0.38700  0.92420  1.0000
  H   H70       1.0  0.01880  0.88700  0.57580  1.0000
  H   H71       1.0  0.01880  0.61300  0.07580  1.0000
  H   H72       1.0  0.98120  0.11300  0.42420  1.0000
  H   H73       1.0  0.90050  0.21680  0.88290  1.0000
  H   H74       1.0  0.09950  0.71680  0.61710  1.0000
  H   H75       1.0  0.09950  0.78320  0.11710  1.0000
  H   H76       1.0  0.90050  0.28320  0.38290  1.0000
  H   H77       1.0  0.71570  0.24530  0.79530  1.0000
  H   H78       1.0  0.28430  0.74530  0.70470  1.0000
  H   H79       1.0  0.28430  0.75470  0.20470  1.0000
  H   H80       1.0  0.71570  0.25470  0.29530  1.0000
  H   H81       1.0  0.28660  0.33830  0.10270  1.0000
  H   H82       1.0  0.71340  0.83830  0.39730  1.0000
  H   H83       1.0  0.71340  0.66170  0.89730  1.0000
  H   H84       1.0  0.28660  0.16170  0.60270  1.0000
  H   H85       1.0  0.08850  0.36070  0.01960  1.0000
  H   H86       1.0  0.91150  0.86070  0.48040  1.0000
  H   H87       1.0  0.91150  0.63930  0.98040  1.0000
  H   H88       1.0  0.08850  0.13930  0.51960  1.0000
  H   H89       1.0  0.12630  0.19950  0.94140  1.0000
  H   H90       1.0  0.87370  0.69950  0.55860  1.0000
  H   H91       1.0  0.87370  0.80050  0.05860  1.0000
  H   H92       1.0  0.12630  0.30050  0.44140  1.0000
  H   H93       1.0  0.32450  0.18140  0.02520  1.0000
  H   H94       1.0  0.67550  0.68140  0.47480  1.0000
  H   H95       1.0  0.67550  0.81860  0.97480  1.0000
  H   H96       1.0  0.32450  0.31860  0.52520  1.0000
  H   H97       1.0  0.20350  0.04400  0.67540  1.0000
  H   H98       1.0  0.79650  0.54400  0.82460  1.0000
  H   H99       1.0  0.79650  0.95600  0.32460  1.0000
  H   H100      1.0  0.20350  0.45600  0.17540  1.0000
  H   H101      1.0  0.98330  0.02400  0.60910  1.0000
  H   H102      1.0  0.01670  0.52400  0.89090  1.0000
  H   H103      1.0  0.01670  0.97600  0.39090  1.0000
  H   H104      1.0  0.98330  0.47600  0.10910  1.0000
  H   H105      1.0  0.21330  0.00030  0.45420  1.0000
  H   H106      1.0  0.78670  0.50030  0.04580  1.0000
  H   H107      1.0  0.78670  0.99970  0.54580  1.0000
  H   H108      1.0  0.21330  0.49970  0.95420  1.0000
  H   H109      1.0  0.42180  0.02620  0.52300  1.0000
  H   H110      1.0  0.57820  0.52620  0.97700  1.0000
  H   H111      1.0  0.57820  0.97380  0.47700  1.0000
  H   H112      1.0  0.42180  0.47380  0.02300  1.0000
  C   C1        1.0  0.64490  0.25120  0.49690  1.0000
  C   C2        1.0  0.35510  0.75120  0.00310  1.0000
  C   C3        1.0  0.35510  0.74880  0.50310  1.0000
  C   C4        1.0  0.64490  0.24880  0.99690  1.0000
  C   C5        1.0  0.47430  0.23510  0.40450  1.0000
  C   C6        1.0  0.52570  0.73510  0.09550  1.0000
  C   C7        1.0  0.52570  0.76490  0.59550  1.0000
  C   C8        1.0  0.47430  0.26490  0.90450  1.0000
  C   C9        1.0  0.56110  0.32700  0.42980  1.0000
  C   C10       1.0  0.43890  0.82700  0.07020  1.0000
  C   C11       1.0  0.43890  0.67300  0.57020  1.0000
  C   C12       1.0  0.56110  0.17300  0.92980  1.0000
  C   C13       1.0  0.75550  0.16780  0.56460  1.0000
  C   C14       1.0  0.24450  0.66780  0.93540  1.0000
  C   C15       1.0  0.24450  0.83220  0.43540  1.0000
  C   C16       1.0  0.75550  0.33220  0.06460  1.0000
  C   C17       1.0  0.65970  0.13850  0.61110  1.0000
  C   C18       1.0  0.34030  0.63850  0.88890  1.0000
  C   C19       1.0  0.34030  0.86150  0.38890  1.0000
  C   C20       1.0  0.65970  0.36150  0.11110  1.0000
  C   C21       1.0  0.84950  0.27000  0.59090  1.0000
  C   C22       1.0  0.15050  0.77000  0.90910  1.0000
  C   C23       1.0  0.15050  0.73000  0.40910  1.0000
  C   C24       1.0  0.84950  0.23000  0.09090  1.0000
  C   C25       1.0  0.79880  0.31150  0.64160  1.0000
  C   C26       1.0  0.20120  0.81150  0.85840  1.0000
  C   C27       1.0  0.20120  0.68850  0.35840  1.0000
  C   C28       1.0  0.79880  0.18850  0.14160  1.0000
  C   C29       1.0  0.34880  0.13950  0.38620  1.0000
  C   C30       1.0  0.65120  0.63950  0.11380  1.0000
  C   C31       1.0  0.65120  0.86050  0.61380  1.0000
  C   C32       1.0  0.34880  0.36050  0.88620  1.0000
  C   C33       1.0  0.40450  0.08790  0.34850  1.0000
  C   C34       1.0  0.59550  0.58790  0.15150  1.0000
  C   C35       1.0  0.59550  0.91210  0.65150  1.0000
  C   C36       1.0  0.40450  0.41210  0.84850  1.0000
  C   C37       1.0  0.27670  0.22430  0.30930  1.0000
  C   C38       1.0  0.72330  0.72430  0.19070  1.0000
  C   C39       1.0  0.72330  0.77570  0.69070  1.0000
  C   C40       1.0  0.27670  0.27570  0.80930  1.0000
  C   C41       1.0  0.34110  0.25130  0.25080  1.0000
  C   C42       1.0  0.65890  0.75130  0.24920  1.0000
  C   C43       1.0  0.65890  0.74870  0.74920  1.0000
  C   C44       1.0  0.34110  0.24870  0.75080  1.0000
  C   C45       1.0  0.65080  0.42440  0.46410  1.0000
  C   C46       1.0  0.34920  0.92440  0.03590  1.0000
  C   C47       1.0  0.34920  0.57560  0.53590  1.0000
  C   C48       1.0  0.65080  0.07560  0.96410  1.0000
  C   C49       1.0  0.59330  0.43210  0.53170  1.0000
  C   C50       1.0  0.40670  0.93210  0.96830  1.0000
  C   C51       1.0  0.40670  0.56790  0.46830  1.0000
  C   C52       1.0  0.59330  0.06790  0.03170  1.0000
  C   C53       1.0  0.46480  0.41060  0.35760  1.0000
  C   C54       1.0  0.53520  0.91060  0.14240  1.0000
  C   C55       1.0  0.53520  0.58940  0.64240  1.0000
  C   C56       1.0  0.46480  0.08940  0.85760  1.0000
  C   C57       1.0  0.55410  0.42380  0.30020  1.0000
  C   C58       1.0  0.44590  0.92380  0.19980  1.0000
  C   C59       1.0  0.44590  0.57620  0.69980  1.0000
  C   C60       1.0  0.55410  0.07620  0.80020  1.0000
  C   C61       1.0  0.81860  0.37140  0.84500  1.0000
  C   C62       1.0  0.18140  0.87140  0.65500  1.0000
  C   C63       1.0  0.18140  0.62860  0.15500  1.0000
  C   C64       1.0  0.81860  0.12860  0.34500  1.0000
  C   C65       1.0  0.92970  0.35720  0.89840  1.0000
  C   C66       1.0  0.07030  0.85720  0.60160  1.0000
  C   C67       1.0  0.07030  0.64280  0.10160  1.0000
  C   C68       1.0  0.92970  0.14280  0.39840  1.0000
  C   C69       1.0  0.96440  0.29900  0.91380  1.0000
  C   C70       1.0  0.03560  0.79900  0.58620  1.0000
  C   C71       1.0  0.03560  0.70100  0.08620  1.0000
  C   C72       1.0  0.96440  0.20100  0.41380  1.0000
  C   C73       1.0  0.88190  0.25670  0.87440  1.0000
  C   C74       1.0  0.11810  0.75670  0.62560  1.0000
  C   C75       1.0  0.11810  0.74330  0.12560  1.0000
  C   C76       1.0  0.88190  0.24330  0.37440  1.0000
  C   C77       1.0  0.77010  0.27430  0.82150  1.0000
  C   C78       1.0  0.22990  0.77430  0.67850  1.0000
  C   C79       1.0  0.22990  0.72570  0.17850  1.0000
  C   C80       1.0  0.77010  0.22570  0.32150  1.0000
  C   C81       1.0  0.25490  0.31060  0.06930  1.0000
  C   C82       1.0  0.74510  0.81060  0.43070  1.0000
  C   C83       1.0  0.74510  0.68940  0.93070  1.0000
  C   C84       1.0  0.25490  0.18940  0.56930  1.0000
  C   C85       1.0  0.13560  0.32410  0.01970  1.0000
  C   C86       1.0  0.86440  0.82410  0.48030  1.0000
  C   C87       1.0  0.86440  0.67590  0.98030  1.0000
  C   C88       1.0  0.13560  0.17590  0.51970  1.0000
  C   C89       1.0  0.08590  0.28290  0.96970  1.0000
  C   C90       1.0  0.91410  0.78290  0.53030  1.0000
  C   C91       1.0  0.91410  0.71710  0.03030  1.0000
  C   C92       1.0  0.08590  0.21710  0.46970  1.0000
  C   C93       1.0  0.15820  0.22860  0.97320  1.0000
  C   C94       1.0  0.84180  0.72860  0.52680  1.0000
  C   C95       1.0  0.84180  0.77140  0.02680  1.0000
  C   C96       1.0  0.15820  0.27140  0.47320  1.0000
  C   C97       1.0  0.27700  0.21800  0.02360  1.0000
  C   C98       1.0  0.72300  0.71800  0.47640  1.0000
  C   C99       1.0  0.72300  0.78200  0.97640  1.0000
  C   C100      1.0  0.27700  0.28200  0.52360  1.0000
  C   C101      1.0  0.20600  0.03480  0.63010  1.0000
  C   C102      1.0  0.79400  0.53480  0.86990  1.0000
  C   C103      1.0  0.79400  0.96520  0.36990  1.0000
  C   C104      1.0  0.20600  0.46520  0.13010  1.0000
  C   C105      1.0  0.07330  0.02260  0.59080  1.0000
  C   C106      1.0  0.92670  0.52260  0.90920  1.0000
  C   C107      1.0  0.92670  0.97740  0.40920  1.0000
  C   C108      1.0  0.07330  0.47740  0.09080  1.0000
  C   C109      1.0  0.07210  0.00800  0.52320  1.0000
  C   C110      1.0  0.92790  0.50800  0.97680  1.0000
  C   C111      1.0  0.92790  0.99200  0.47680  1.0000
  C   C112      1.0  0.07210  0.49200  0.02320  1.0000
  C   C113      1.0  0.20780  0.00930  0.49930  1.0000
  C   C114      1.0  0.79220  0.50930  0.00070  1.0000
  C   C115      1.0  0.79220  0.99070  0.50070  1.0000
  C   C116      1.0  0.20780  0.49070  0.99930  1.0000
  C   C117      1.0  0.33200  0.02350  0.54130  1.0000
  C   C118      1.0  0.66800  0.52350  0.95870  1.0000
  C   C119      1.0  0.66800  0.97650  0.45870  1.0000
  C   C120      1.0  0.33200  0.47650  0.04130  1.0000
  N   N1        1.0  0.55950  0.21140  0.45890  1.0000
  N   N2        1.0  0.44050  0.71140  0.04110  1.0000
  N   N3        1.0  0.44050  0.78860  0.54110  1.0000
  N   N4        1.0  0.55950  0.28860  0.95890  1.0000
  N   N5        1.0  0.65100  0.30900  0.48580  1.0000
  N   N6        1.0  0.34900  0.80900  0.01420  1.0000
  N   N7        1.0  0.34900  0.69100  0.51420  1.0000
  N   N8        1.0  0.65100  0.19100  0.98580  1.0000
  N   N9        1.0  0.47220  0.29220  0.38590  1.0000
  N   N10       1.0  0.52780  0.79220  0.11410  1.0000
  N   N11       1.0  0.52780  0.70780  0.61410  1.0000
  N   N12       1.0  0.47220  0.20780  0.88590  1.0000
  N   N13       1.0  0.73300  0.23050  0.55480  1.0000
  N   N14       1.0  0.26700  0.73050  0.94520  1.0000
  N   N15       1.0  0.26700  0.76950  0.44520  1.0000
  N   N16       1.0  0.73300  0.26950  0.05480  1.0000
  N   N17       1.0  0.55730  0.38530  0.41730  1.0000
  N   N18       1.0  0.44270  0.88530  0.08270  1.0000
  N   N19       1.0  0.44270  0.61470  0.58270  1.0000
  N   N20       1.0  0.55730  0.11470  0.91730  1.0000
  N   N21       1.0  0.38190  0.19850  0.36280  1.0000
  N   N22       1.0  0.61810  0.69850  0.13720  1.0000
  N   N23       1.0  0.61810  0.80150  0.63720  1.0000
  N   N24       1.0  0.38190  0.30150  0.86280  1.0000
  N   N25       1.0  0.73870  0.33020  0.80700  1.0000
  N   N26       1.0  0.26130  0.83020  0.69300  1.0000
  N   N27       1.0  0.26130  0.66980  0.19300  1.0000
  N   N28       1.0  0.73870  0.16980  0.30700  1.0000
  N   N29       1.0  0.32680  0.25820  0.07050  1.0000
  N   N30       1.0  0.67320  0.75820  0.42950  1.0000
  N   N31       1.0  0.67320  0.74180  0.92950  1.0000
  N   N32       1.0  0.32680  0.24180  0.57050  1.0000
  N   N33       1.0  0.33850  0.03440  0.60870  1.0000
  N   N34       1.0  0.66150  0.53440  0.89130  1.0000
  N   N35       1.0  0.66150  0.96560  0.39130  1.0000
  N   N36       1.0  0.33850  0.46560  0.10870  1.0000
  O   O1        1.0  0.67090  0.08320  0.61310  1.0000
  O   O2        1.0  0.32910  0.58320  0.88690  1.0000
  O   O3        1.0  0.32910  0.91680  0.38690  1.0000
  O   O4        1.0  0.67090  0.41680  0.11310  1.0000
  O   O5        1.0  0.57860  0.16630  0.64620  1.0000
  O   O6        1.0  0.42140  0.66630  0.85380  1.0000
  O   O7        1.0  0.42140  0.83370  0.35380  1.0000
  O   O8        1.0  0.57860  0.33370  0.14620  1.0000
  O   O9        1.0  0.66060  0.30970  0.65400  1.0000
  O   O10       1.0  0.33940  0.80970  0.84600  1.0000
  O   O11       1.0  0.33940  0.69030  0.34600  1.0000
  O   O12       1.0  0.66060  0.19030  0.15400  1.0000
  O   O13       1.0  0.89040  0.34560  0.66960  1.0000
  O   O14       1.0  0.10960  0.84560  0.83040  1.0000
  O   O15       1.0  0.10960  0.65440  0.33040  1.0000
  O   O16       1.0  0.89040  0.15440  0.16960  1.0000
  O   O17       1.0  0.37880  0.03940  0.37330  1.0000
  O   O18       1.0  0.62120  0.53940  0.12670  1.0000
  O   O19       1.0  0.62120  0.96060  0.62670  1.0000
  O   O20       1.0  0.37880  0.46060  0.87330  1.0000
  O   O21       1.0  0.46500  0.09340  0.29760  1.0000
  O   O22       1.0  0.53500  0.59340  0.20240  1.0000
  O   O23       1.0  0.53500  0.90660  0.70240  1.0000
  O   O24       1.0  0.46500  0.40660  0.79760  1.0000
  O   O25       1.0  0.46120  0.22811  0.23330  1.0000
  O   O26       1.0  0.53880  0.72811  0.26670  1.0000
  O   O27       1.0  0.53880  0.77189  0.76670  1.0000
  O   O28       1.0  0.46120  0.27189  0.73330  1.0000
  O   O29       1.0  0.27610  0.29260  0.21940  1.0000
  O   O30       1.0  0.72390  0.79260  0.28060  1.0000
  O   O31       1.0  0.72390  0.70740  0.78060  1.0000
  O   O32       1.0  0.27610  0.20740  0.71940  1.0000
  O   O33       1.0  0.69080  0.45340  0.57790  1.0000
  O   O34       1.0  0.30920  0.95340  0.92210  1.0000
  O   O35       1.0  0.30920  0.54660  0.42210  1.0000
  O   O36       1.0  0.69080  0.04660  0.07790  1.0000
  O   O37       1.0  0.46200  0.41820  0.53810  1.0000
  O   O38       1.0  0.53800  0.91820  0.96190  1.0000
  O   O39       1.0  0.53800  0.58180  0.46190  1.0000
  O   O40       1.0  0.46200  0.08180  0.03810  1.0000
  O   O41       1.0  0.67960  0.40240  0.30000  1.0000
  O   O42       1.0  0.32040  0.90240  0.20000  1.0000
  O   O43       1.0  0.32040  0.59760  0.70000  1.0000
  O   O44       1.0  0.67960  0.09760  0.80000  1.0000
  O   O45       1.0  0.48310  0.45620  0.25480  1.0000
  O   O46       1.0  0.51690  0.95620  0.24520  1.0000
  O   O47       1.0  0.51690  0.54380  0.74520  1.0000
  O   O48       1.0  0.48310  0.04380  0.75480  1.0000
  O   O49       1.0  0.39530  0.37410  0.65340  1.0000
  O   O50       1.0  0.60470  0.87410  0.84660  1.0000
  O   O51       1.0  0.60470  0.62590  0.34660  1.0000
  O   O52       1.0  0.39530  0.12590  0.15340  1.0000
  O   O53       1.0  0.67330  0.43950  0.71060  1.0000
  O   O54       1.0  0.32670  0.93950  0.78940  1.0000
  O   O55       1.0  0.32670  0.56050  0.28940  1.0000
  O   O56       1.0  0.67330  0.06050  0.21060  1.0000
